
*** ChampSim Multicore Out-of-Order Simulator ***

Warmup Instructions: 25000000
Simulation Instructions: 25000000
Number of CPUs: 1
LLC sets: 2048
LLC ways: 16
Off-chip DRAM Size: 4096 MB Channels: 1 Width: 64-bit Data Rate: 6400 MT/s
CPU 0 runs ./traces/trace1.champsimtrace.xz
.xz
CPU 0 Bimodal branch predictor
BTB has LRU replacement policy
ITLB has LRU replacement policy
DTLB has LRU replacement policy
STLB has SRRIP replacement policy
L1I has LRU replacement policy
L1D has LRU replacement policy
L2C has LRU replacement policy
LLC has LRU replacement policy
Heartbeat CPU 0 instructions: 10000003 cycles: 2831324 heartbeat IPC: 3.53192 cumulative IPC: 3.53192 (Simulation time: 0 hr 0 min 10 sec) 
Heartbeat CPU 0 instructions: 20000000 cycles: 5652925 heartbeat IPC: 3.54409 cumulative IPC: 3.53799 (Simulation time: 0 hr 0 min 20 sec) 

Warmup complete CPU 0 instructions: 25000004 cycles: 7067951 (Simulation time: 0 hr 0 min 25 sec) 

Heartbeat CPU 0 instructions: 30000002 cycles: 24178044 heartbeat IPC: 0.539808 cumulative IPC: 0.292225 (Simulation time: 0 hr 0 min 38 sec) 
Heartbeat CPU 0 instructions: 40000001 cycles: 60849937 heartbeat IPC: 0.272688 cumulative IPC: 0.278904 (Simulation time: 0 hr 1 min 4 sec) 
Heartbeat CPU 0 instructions: 50000003 cycles: 96384636 heartbeat IPC: 0.281415 cumulative IPC: 0.279903 (Simulation time: 0 hr 1 min 29 sec) 
Finished CPU 0 instructions: 25000003 cycles: 89316686 cumulative IPC: 0.279903 (Simulation time: 0 hr 1 min 29 sec) 

ChampSim completed all CPUs

Region of Interest Statistics

CPU 0 cumulative IPC: 0.279903 instructions: 25000003 cycles: 89316686
ITLB TOTAL     ACCESS:    4442865  HIT:    4442865  MISS:          0  HIT %:        100  MISS %:          0   MPKI: 0
ITLB LOAD TRANSLATION ACCESS:    4442865  HIT:    4442865  MISS:          0  HIT %:        100  MISS %:          0   MPKI: 0
ITLB PREFETCH  REQUESTED:          0  ISSUED:          0  USEFUL:          0  USELESS:          0
ITLB USEFUL LOAD PREFETCHES:          0 PREFETCH ISSUED TO LOWER LEVEL:          0  ACCURACY: -nan
ITLB TIMELY PREFETCHES:          0 LATE PREFETCHES: 0 DROPPED PREFETCHES: 0
ITLB PREFETCHES SAME FILL-ORIGIN LEVEL: 0 DIFFERENT FILL-ORIGIN LEVEL: 0
ITLB AVERAGE MISS LATENCY: -nan cycles
ITLB RQ	ACCESS:    4796030	FORWARD:          0	MERGED:     353166	TO_CACHE:    4442864

DTLB TOTAL     ACCESS:    3721254  HIT:    3058354  MISS:     662900  HIT %:    82.1861  MISS %:    17.8139   MPKI: 26.516
DTLB LOAD TRANSLATION ACCESS:    3721254  HIT:    3058354  MISS:     662900  HIT %:    82.1861  MISS %:    17.8139   MPKI: 26.516
DTLB PREFETCH  REQUESTED:          0  ISSUED:          0  USEFUL:          0  USELESS:          0
DTLB USEFUL LOAD PREFETCHES:          0 PREFETCH ISSUED TO LOWER LEVEL:          0  ACCURACY: -nan
DTLB TIMELY PREFETCHES:          0 LATE PREFETCHES: 0 DROPPED PREFETCHES: 0
DTLB PREFETCHES SAME FILL-ORIGIN LEVEL: 0 DIFFERENT FILL-ORIGIN LEVEL: 0
DTLB AVERAGE MISS LATENCY: 55.9603 cycles
DTLB RQ	ACCESS:    4320413	FORWARD:          0	MERGED:     591320	TO_CACHE:    3729093

STLB TOTAL     ACCESS:     662899  HIT:     102419  MISS:     560480  HIT %:    15.4502  MISS %:    84.5498   MPKI: 22.4192
STLB LOAD TRANSLATION ACCESS:     662899  HIT:     102419  MISS:     560480  HIT %:    15.4502  MISS %:    84.5498   MPKI: 22.4192
STLB PREFETCH  REQUESTED:          0  ISSUED:          0  USEFUL:          0  USELESS:          0
STLB USEFUL LOAD PREFETCHES:          0 PREFETCH ISSUED TO LOWER LEVEL:          0  ACCURACY: -nan
STLB TIMELY PREFETCHES:          0 LATE PREFETCHES: 0 DROPPED PREFETCHES: 0
STLB PREFETCHES SAME FILL-ORIGIN LEVEL: 0 DIFFERENT FILL-ORIGIN LEVEL: 0
STLB AVERAGE MISS LATENCY: 55.4032 cycles
STLB RQ	ACCESS:     662901	FORWARD:          0	MERGED:          0	TO_CACHE:     662901

STLB Hit, L1D data hit: 0
STLB Hit, L2C data hit: 0
STLB Hit, LLC data hit: 0
STLB Hit, LLC data miss: 0
STLB STLB hints to L2: 0
L1D TOTAL     ACCESS:    4300044  HIT:    3094799  MISS:    1205245  HIT %:    71.9713  MISS %:    28.0287   MPKI: 48.2098
L1D LOAD      ACCESS:    3191380  HIT:    2055499  MISS:    1135881  HIT %:    64.4078  MISS %:    35.5922   MPKI: 45.4352
L1D RFO       ACCESS:    1108664  HIT:    1039300  MISS:      69364  HIT %:    93.7435  MISS %:    6.25654   MPKI: 2.77456
L1D PREFETCH  REQUESTED:          0  ISSUED:          0  USEFUL:          0  USELESS:          0
L1D USEFUL LOAD PREFETCHES:          0 PREFETCH ISSUED TO LOWER LEVEL:          0  ACCURACY: -nan
L1D TIMELY PREFETCHES:          0 LATE PREFETCHES: 0 DROPPED PREFETCHES: 0
L1D PREFETCHES SAME FILL-ORIGIN LEVEL: 0 DIFFERENT FILL-ORIGIN LEVEL: 0
L1D AVERAGE MISS LATENCY: 124.511 cycles
L1D RQ	ACCESS:    6161483	FORWARD:          0	MERGED:    2885263	TO_CACHE:    3211747
L1D WQ	ACCESS:    1108674	FORWARD:      64473	MERGED:          8	TO_CACHE:    1108666

L1D UNIQUE REGIONS ACCESSED: 0
L1D REGIONS CONFLICTS: 0
L1D Cross Page Prefetch Requests: 0
L1D Same Page Prefetch Requests: 0
L1D ROI Sum of L1D PQ occupancy: 0
L1D PREFETCHES PUSHED FROM L2C: 0
L1I TOTAL     ACCESS:    4796030  HIT:    4796030  MISS:          0  HIT %:        100  MISS %:          0   MPKI: 0
L1I LOAD      ACCESS:    4796030  HIT:    4796030  MISS:          0  HIT %:        100  MISS %:          0   MPKI: 0
L1I PREFETCH  REQUESTED:          0  ISSUED:          0  USEFUL:          0  USELESS:          0
L1I USEFUL LOAD PREFETCHES:          0 PREFETCH ISSUED TO LOWER LEVEL:          0  ACCURACY: -nan
L1I TIMELY PREFETCHES:          0 LATE PREFETCHES: 0 DROPPED PREFETCHES: 0
L1I PREFETCHES SAME FILL-ORIGIN LEVEL: 0 DIFFERENT FILL-ORIGIN LEVEL: 0
L1I AVERAGE MISS LATENCY: -nan cycles
L1I RQ	ACCESS:    7115736	FORWARD:          0	MERGED:    2319706	TO_CACHE:    4796030

BTB TOTAL     ACCESS:    3283963  HIT:    3283955  MISS:          8  HIT %:    99.9998  MISS %: 0.000243608   MPKI: 0.00032
BTB BRANCH_DIRECT_JUMP	ACCESS:     568310  HIT:     568308  MISS:          2
BTB BRANCH_INDIRECT	ACCESS:          0  HIT:          0  MISS:          0
BTB BRANCH_CONDITIONAL	ACCESS:    1606985  HIT:    1606981  MISS:          4
BTB BRANCH_DIRECT_CALL	ACCESS:     554334  HIT:     554333  MISS:          1
BTB BRANCH_INDIRECT_CALL	ACCESS:          0  HIT:          0  MISS:          0
BTB BRANCH_RETURN	ACCESS:     554334  HIT:     554333  MISS:          1
BTB BRANCH_OTHER ACCESS:          0  HIT:          0  MISS:          0

L2C TOTAL     ACCESS:    2396807  HIT:    1385411  MISS:    1011396  HIT %:    57.8024  MISS %:    42.1976   MPKI: 40.4558
L2C LOAD      ACCESS:    1135881  HIT:     420018  MISS:     715863  HIT %:    36.9773  MISS %:    63.0227   MPKI: 28.6345
L2C DATA LOAD MPKI: 28.6345
L2C INSTRUCTION LOAD MPKI: 0
L2C RFO       ACCESS:      69364  HIT:      42749  MISS:      26615  HIT %:      61.63  MISS %:      38.37   MPKI: 1.0646
L2C WRITEBACK ACCESS:     554349  HIT:     554349  MISS:          0  HIT %:        100  MISS %:          0   MPKI: 0
L2C LOAD TRANSLATION ACCESS:     637213  HIT:     368295  MISS:     268918  HIT %:    57.7978  MISS %:    42.2022   MPKI: 10.7567
L2C PREFETCH  REQUESTED:          0  ISSUED:          0  USEFUL:          0  USELESS:          0
L2C USEFUL LOAD PREFETCHES:          0 PREFETCH ISSUED TO LOWER LEVEL:          0  ACCURACY: -nan
L2C TIMELY PREFETCHES:          0 LATE PREFETCHES: 0 DROPPED PREFETCHES: 0
L2C PREFETCHES SAME FILL-ORIGIN LEVEL: 0 DIFFERENT FILL-ORIGIN LEVEL: 0
L2C AVERAGE MISS LATENCY: 139.434 cycles
L2C RQ	ACCESS:    1842459	FORWARD:          0	MERGED:          0	TO_CACHE:    1842459
L2C WQ	ACCESS:     554349	FORWARD:          0	MERGED:          0	TO_CACHE:     554349

L2C Instructions Evicting Data 0
L2C Translations Evicting Data 150869
L2C Data Evicting Data 591519
L2C Instructions Evicting Instructions 0
L2C Translations Evicting Instructions 0
L2C Data Evicting Instructions 0
L2C Instructions Evicting Translations 0
L2C Translations Evicting Translations 118049
L2C Data Evicting Translations 150959
L2C Dense regions hint from L2: 0
PSCL5 TOTAL     ACCESS:     560481  HIT:     560481  MISS:          0  HIT %:        100  MISS %:          0   MPKI: 0
PSCL5 LOAD TRANSLATION ACCESS:     560481  HIT:     560481  MISS:          0  HIT %:        100  MISS %:          0   MPKI: 0
PSCL5 PREFETCH  REQUESTED:          0  ISSUED:          0  USEFUL:          0  USELESS:          0
PSCL5 USEFUL LOAD PREFETCHES:          0 PREFETCH ISSUED TO LOWER LEVEL:          0  ACCURACY: -nan
PSCL5 TIMELY PREFETCHES:          0 LATE PREFETCHES: 0 DROPPED PREFETCHES: 0
PSCL5 PREFETCHES SAME FILL-ORIGIN LEVEL: 0 DIFFERENT FILL-ORIGIN LEVEL: 0

PSCL4 TOTAL     ACCESS:     560481  HIT:     560481  MISS:          0  HIT %:        100  MISS %:          0   MPKI: 0
PSCL4 LOAD TRANSLATION ACCESS:     560481  HIT:     560481  MISS:          0  HIT %:        100  MISS %:          0   MPKI: 0
PSCL4 PREFETCH  REQUESTED:          0  ISSUED:          0  USEFUL:          0  USELESS:          0
PSCL4 USEFUL LOAD PREFETCHES:          0 PREFETCH ISSUED TO LOWER LEVEL:          0  ACCURACY: -nan
PSCL4 TIMELY PREFETCHES:          0 LATE PREFETCHES: 0 DROPPED PREFETCHES: 0
PSCL4 PREFETCHES SAME FILL-ORIGIN LEVEL: 0 DIFFERENT FILL-ORIGIN LEVEL: 0

PSCL3 TOTAL     ACCESS:     560481  HIT:     560481  MISS:          0  HIT %:        100  MISS %:          0   MPKI: 0
PSCL3 LOAD TRANSLATION ACCESS:     560481  HIT:     560481  MISS:          0  HIT %:        100  MISS %:          0   MPKI: 0
PSCL3 PREFETCH  REQUESTED:          0  ISSUED:          0  USEFUL:          0  USELESS:          0
PSCL3 USEFUL LOAD PREFETCHES:          0 PREFETCH ISSUED TO LOWER LEVEL:          0  ACCURACY: -nan
PSCL3 TIMELY PREFETCHES:          0 LATE PREFETCHES: 0 DROPPED PREFETCHES: 0
PSCL3 PREFETCHES SAME FILL-ORIGIN LEVEL: 0 DIFFERENT FILL-ORIGIN LEVEL: 0

PSCL2 TOTAL     ACCESS:     560481  HIT:     483749  MISS:      76732  HIT %:    86.3096  MISS %:    13.6904   MPKI: 3.06928
PSCL2 LOAD TRANSLATION ACCESS:     560481  HIT:     483749  MISS:      76732  HIT %:    86.3096  MISS %:    13.6904   MPKI: 3.06928
PSCL2 PREFETCH  REQUESTED:          0  ISSUED:          0  USEFUL:          0  USELESS:          0
PSCL2 USEFUL LOAD PREFETCHES:          0 PREFETCH ISSUED TO LOWER LEVEL:          0  ACCURACY: -nan
PSCL2 TIMELY PREFETCHES:          0 LATE PREFETCHES: 0 DROPPED PREFETCHES: 0
PSCL2 PREFETCHES SAME FILL-ORIGIN LEVEL: 0 DIFFERENT FILL-ORIGIN LEVEL: 0

LLC TOTAL     ACCESS:    1566149  HIT:     917220  MISS:     648929  HIT %:    58.5653  MISS %:    41.4347   MPKI: 25.9572
LLC LOAD      ACCESS:     715863  HIT:      74420  MISS:     641443  HIT %:    10.3958  MISS %:    89.6042   MPKI: 25.6577
LLC RFO       ACCESS:      26615  HIT:      26611  MISS:          4  HIT %:     99.985  MISS %:  0.0150291   MPKI: 0.00016
LLC WRITEBACK ACCESS:     554753  HIT:     554753  MISS:          0  HIT %:        100  MISS %:          0   MPKI: 0
LLC LOAD TRANSLATION ACCESS:     268918  HIT:     261436  MISS:       7482  HIT %:    97.2177  MISS %:    2.78226   MPKI: 0.29928
LLC PREFETCH  REQUESTED:          0  ISSUED:          0  USEFUL:          0  USELESS:          0
LLC USEFUL LOAD PREFETCHES:          0 PREFETCH ISSUED TO LOWER LEVEL:          0  ACCURACY: -nan
LLC TIMELY PREFETCHES:          0 LATE PREFETCHES: 0 DROPPED PREFETCHES: 0
LLC PREFETCHES SAME FILL-ORIGIN LEVEL: 0 DIFFERENT FILL-ORIGIN LEVEL: 0
LLC AVERAGE MISS LATENCY: 170.368 cycles
LLC RQ	ACCESS:    1011397	FORWARD:          0	MERGED:          0	TO_CACHE:    1011397
LLC WQ	ACCESS:     554753	FORWARD:          0	MERGED:          0	TO_CACHE:     554753

LLC Dense regions hint to LLC: 0

RAW hits: 489049
Loads Generated: 6650535
Loads sent to L1D: 6161483
Stores Generated: 1108672
Stores sent to L1D: 1108674
Major fault: 0 Minor fault: 23116
Allocated PAGES: 23116
Number of unique pages in STLB: 22722
139664031195136 111 
139664013631488 122 
139663991173120 141 
139663973609472 141 
139663968714752 171 
139663951151104 141 
139663928692736 141 
139663906234368 162 
139663888670720 121 
139663883776000 111 
139663866212352 132 
139663843753984 351 
139663826190336 311 
139663821295616 121 
139663803731968 173 
139663781273600 181 
139663758815232 111 
139663741251584 171 
139663736356864 152 
139663718793216 136 
139663696334848 122 
139663678771200 111 
139663673876480 141 
139663656312832 141 
139663633854464 141 
139663611396096 311 
139663593832448 362 
139663588937728 311 
139663571374080 221 
139663548915712 191 
139663531352064 141 
139663526457344 202 
139663508893696 141 
139664250884096 141 
139664228425728 141 
139664210862080 152 
139664205967360 152 
139664188403712 111 
139664165945344 134 
139664148381696 111 
139664143486976 111 
139664125923328 111 
139664103464960 111 
139664081006592 141 
139664063442944 222 
139664058548224 311 
139664040984576 524 
139664018526208 161 19 
139664000962560 181 49 
139663996067840 161 19 
139663978504192 120 19 
139663956045824 111 49 
139663933587456 122 19 
139663916023808 141 99 
139663911129088 146 50 
139663893565440 111 30 
139663871107072 111 21 
139663853543424 122 19 
139663848648704 141 85 
139663831085056 111 49 
139663808626688 333 121 
139663786168320 138 67 
139663768604672 111 19 
139663763709952 132 19 
139663746146304 249 49 
139663723687936 218 30 
139663706124288 111 19 
139663701229568 111 19 
139663683665920 122 30 
139663661207552 151 29 
139663638749184 142 89 
139663621185536 111 19 
139663616290816 146 102 
139663598727168 111 19 
139663576268800 311 66 
139663558705152 351 91 
139663553810432 152 30 
139663536246784 181 49 
139663513788416 162 30 
139664255778816 311 49 
139664238215168 311 49 
139664233320448 222 90 
139664215756800 166 49 
139664193298432 218 77 
139664175734784 141 38 
139664170840064 111 29 
139664153276416 141 19 
139664130818048 331 40 
139664108359680 123 29 
139664090796032 141 49 
139664085901312 146 29 
139664068337664 111 19 
139664045879296 111 19 
139664028315648 121 30 29 
139664023420928 322 30 30 
139664005857280 351 49 59 
139663983398912 121 19 29 
139663960940544 211 19 119 
139663943376896 157 24 63 
139663938482176 182 19 69 
139663920918528 141 49 49 
139663898460160 141 49 49 
139663880896512 152 70 114 
139663876001792 111 19 219 
139663858438144 164 59 49 
139663835979776 111 60 19 
139663813521408 111 99 49 
139663795957760 111 49 19 
139663791063040 351 140 49 
139663773499392 311 19 19 
139663751041024 141 60 19 
139663733477376 170 49 89 
139663728582656 111 59 19 
139663711019008 161 30 80 
139663688560640 142 19 50 
139663666102272 221 56 129 
139663648538624 152 49 30 
139663643643904 111 19 31 
139663626080256 111 19 37 
139663603621888 150 19 19 
139663586058240 111 69 19 
139663581163520 141 52 30 
139663563599872 141 99 55 
139663541141504 322 49 60 
139663518683136 141 104 74 
139664265568256 141 49 49 
139664260673536 172 140 49 
139664243109888 141 49 49 
139664220651520 322 60 60 
139664203087872 370 19 119 
139664198193152 141 19 49 
139664180629504 181 49 129 
139664158171136 202 49 110 
139664135712768 161 49 39 
139664118149120 121 19 22 
139664113254400 111 19 19 
139664095690752 141 19 19 
139664073232384 121 19 19 
139664055668736 112 50 219 
139664050774016 177 30 30 
139664033210368 141 99 49 
139664010752000 111 19 19 25 
139663988293632 351 203 19 19 
139663970729984 311 19 19 19 
139663965835264 141 55 89 55 
139663948271616 195 108 112 87 
139663925813248 171 49 89 88 
139663908249600 232 87 140 60 
139663903354880 181 49 89 49 
139663885791232 111 19 49 19 
139663863332864 111 19 41 49 
139663840874496 117 49 85 49 
139663823310848 141 49 49 49 
139663818416128 111 19 26 19 
139663800852480 171 89 49 89 
139663778394112 123 70 60 40 
139663760830464 147 96 89 96 
139663755935744 341 89 49 102 
139663738372096 322 125 60 84 
139663715913728 111 27 19 19 
139663693455360 111 19 19 19 
139663675891712 181 90 89 130 
139663670996992 141 49 19 49 
139663653433344 181 55 59 49 
139663630974976 151 19 78 19 
139663613411328 166 49 85 49 
139663608516608 132 19 41 19 
139663590952960 111 19 45 19 
139663568494592 122 30 60 60 
139663546036224 141 49 49 49 
139663528472576 164 100 30 70 
139663523577856 311 19 19 49 
139663506014208 311 122 49 131 
139664294068224 122 30 30 30 
139664248004608 152 40 230 70 
139664230440960 111 66 19 43 
139664225546240 141 89 49 102 
139664207982592 152 65 60 96 
139664185524224 311 55 47 19 
139664163065856 111 19 19 19 
139664145502208 192 108 70 90 
139664140607488 141 19 19 19 
139664123043840 121 19 29 20 
139664100585472 121 19 29 19 
139664083021824 111 19 49 19 
139664078127104 154 30 101 60 
139664060563456 141 55 49 49 
139664038105088 152 60 60 60 
139664015646720 111 19 19 19 19 
139663998083072 111 59 49 59 19 
139663993188352 111 49 19 19 19 
139663975624704 111 62 19 71 19 
139663953166336 337 69 50 99 19 
139663935602688 322 22 19 40 19 
139663930707968 163 129 49 129 86 
139663913144320 111 58 49 49 19 
139663890685952 141 49 49 49 19 
139663868227584 122 35 30 30 30 
139663850663936 211 44 86 49 99 
139663845769216 111 19 19 19 19 
139663828205568 191 49 99 49 99 
139663805747200 232 49 140 49 49 
139663788183552 111 49 49 49 76 
139663783288832 191 49 80 49 79 
139663765725184 122 49 60 19 30 
139663743266816 141 49 49 49 49 
139663720808448 350 49 58 68 20 
139663703244800 311 80 49 80 49 
139663698350080 122 31 30 40 30 
139663680786432 141 19 19 19 29 
139663658328064 111 31 19 81 41 
139663640764416 111 24 49 49 49 
139663635869696 158 49 19 57 49 
139663618306048 141 49 68 49 71 
139663595847680 144 90 91 101 100 
139663573389312 168 62 89 79 89 
139663555825664 122 30 60 60 55 
139663550930944 181 67 59 67 89 
139663533367296 177 49 73 49 85 
139663510908928 177 49 86 49 84 
139664257794048 141 49 49 49 49 
139664252899328 221 49 67 49 86 
139664235335680 122 30 30 30 30 
139664212877312 141 49 49 49 49 
139664190418944 141 49 49 68 67 
139664172855296 123 80 19 110 219 
139664167960576 311 20 49 29 19 
139664150396928 311 19 49 19 19 
139664127938560 111 19 19 52 219 
139664110374912 111 29 19 219 19 
139664105480192 155 19 19 39 30 
139664087916544 111 19 19 219 19 
139664065458176 152 60 61 30 70 
139664042999808 111 60 59 60 59 
139664025436160 111 19 55 49 96 19 
139664020541440 121 48 29 217 59 19 
139664002977792 125 19 73 19 19 19 
139663980519424 141 19 19 20 49 49 
139663962955776 122 79 65 90 49 70 
139663958061056 188 49 66 89 49 49 
139663940497408 188 48 61 59 31 89 
139663918039040 328 59 36 29 31 29 
139663895580672 122 70 30 70 30 89 
139663878017024 111 19 19 19 19 19 
139663873122304 127 89 49 232 19 41 
139663855558656 111 26 55 19 49 55 
139663833100288 141 60 49 19 19 19 
139663815536640 151 79 29 19 59 80 
139663810641920 111 19 19 19 49 19 
139663793078272 132 60 40 49 70 19 
139663770619904 151 49 59 79 78 76 
139663748161536 121 19 29 19 29 19 
139663730597888 111 49 25 19 55 19 
139663725703168 193 30 110 36 110 19 
139663708139520 111 19 19 19 19 19 
139663685681152 321 49 19 19 25 19 
139663668117504 311 89 49 89 49 108 
139663663222784 141 49 49 49 49 49 
139663645659136 183 29 19 29 19 60 
139663623200768 141 71 49 140 50 140 
139663600742400 111 99 19 99 19 69 
139663583178752 122 19 30 40 30 30 
139663578284032 142 39 49 99 49 24 
139663560720384 141 19 19 19 19 19 
139663538262016 141 49 49 49 49 49 
139663520698368 151 49 70 19 110 26 
139663515803648 141 49 49 49 62 91 
139664262688768 192 118 100 90 100 60 
139664240230400 151 19 59 61 48 49 
139664217772032 140 49 78 219 88 19 
139664200208384 144 49 85 49 85 49 
139664195313664 212 96 129 49 129 92 
139664177750016 141 49 49 49 49 49 
139664155291648 111 19 49 49 20 49 
139664137728000 142 59 261 59 19 108 
139664132833280 352 49 60 49 30 19 
139664115269632 323 29 19 29 43 30 
139664092811264 122 101 30 110 25 110 
139664070352896 111 50 19 50 19 50 
139664052789248 152 30 60 60 60 60 
139664047894528 166 129 19 99 49 31 
139664030330880 111 29 19 29 19 29 19 
139664007872512 311 19 19 50 19 19 49 
139663990308864 132 19 40 19 50 19 50 
139663985414144 111 19 19 19 19 19 19 
139663967850496 150 19 39 19 69 19 39 
139663945392128 131 44 69 19 39 19 39 
139663922933760 172 66 110 30 56 69 30 
139663905370112 141 49 49 49 19 49 49 
139663900475392 311 49 86 49 85 49 86 
139663882911744 322 30 30 30 30 30 30 
139663860453376 121 19 29 19 29 19 29 
139663842889728 131 69 19 69 19 69 64 
139663837995008 159 71 49 50 79 59 85 
139663820431360 111 80 19 80 49 19 60 
139663797972992 141 61 49 84 49 80 49 
139663775514624 151 49 49 49 49 49 49 
139663757950976 141 49 49 49 68 49 49 
139663753056256 152 60 100 60 60 60 60 
139663735492608 154 91 71 54 80 49 89 
139663713034240 122 30 70 86 100 60 70 
139663695470592 131 19 69 19 19 19 26 
139663690575872 121 30 29 19 229 19 29 
139663673012224 178 49 85 89 96 141 96 
139663650553856 336 49 75 60 61 40 74 
139663628095488 112 19 55 49 56 49 19 
139663610531840 152 60 60 57 60 70 372 
139663605637120 111 19 19 19 19 19 19 
139663588073472 141 59 49 59 61 89 49 
139663565615104 154 259 49 59 19 59 49 
139663548051456 111 26 19 55 29 45 19 
139663543156736 170 70 30 70 49 70 19 
139663525593088 141 54 19 55 89 55 59 
139664267583488 141 61 49 84 49 85 89 
139664245125120 121 66 19 19 49 265 37 
139664227561472 111 19 19 49 68 49 68 
139664222666752 152 91 100 121 60 97 60 
139664205103104 154 77 71 49 80 49 89 
139664182644736 171 49 89 61 59 49 59 
139664165081088 161 49 69 19 68 49 19 
139664160186368 132 219 40 19 240 42 40 
139664142622720 148 49 49 49 96 49 296 
139664120164352 111 30 19 19 19 60 19 
139664097705984 311 19 19 19 19 19 19 
139664080142336 322 30 60 57 60 70 60 
139664075247616 111 19 19 19 19 19 19 
139664057683968 123 29 30 29 230 59 30 
139664035225600 129 59 19 29 19 89 67 
139664017661952 121 19 59 19 19 45 59 34 
139664012767232 141 59 49 59 49 59 19 60 
139663995203584 112 49 19 19 59 49 19 19 
139663972745216 111 25 19 19 19 25 19 19 
139663950286848 132 19 19 19 19 30 19 230 
139663932723200 121 19 29 219 89 19 29 19 
139663927828480 141 49 49 49 49 49 49 49 
139663910264832 192 77 100 60 70 99 122 60 
139663887806464 151 19 29 19 40 19 37 49 
139663870242816 111 19 19 19 19 19 19 19 
139663865348096 465 49 60 49 39 19 99 80 
139663847784448 311 19 19 19 19 19 19 19 
139663825326080 111 19 19 19 19 49 49 49 
139663802867712 141 49 49 49 49 49 49 49 
139663785304064 141 89 91 59 19 59 19 88 
139663780409344 122 19 30 219 60 49 60 49 
139663762845696 129 51 49 60 19 69 49 129 
139663740387328 122 140 60 80 49 80 57 80 
139663722823680 141 64 49 49 19 19 49 49 
139663717928960 141 50 19 50 19 19 49 49 
139663700365312 111 19 19 19 19 19 19 19 
139663677906944 111 19 19 28 19 19 219 19 
139663655448576 141 49 49 49 49 49 68 80 
139663637884928 222 49 127 19 140 19 110 49 
139663632990208 311 28 19 19 19 20 220 247 
139663615426560 361 19 129 19 99 19 129 49 
139663592968192 161 19 39 219 19 19 19 49 
139663575404544 111 19 49 19 49 19 49 19 
139663570509824 202 60 67 60 60 30 125 60 
139663552946176 142 49 49 49 19 19 49 62 
139663530487808 111 19 19 19 19 38 78 19 
139663508029440 152 49 49 79 102 59 60 70 
139664292052992 322 60 60 70 60 60 60 30 
139664254914560 111 89 79 108 88 89 74 89 
139664250019840 210 90 90 90 90 90 90 90 
139664232456192 141 81 19 30 25 69 19 69 
139664209997824 189 129 67 129 49 99 62 99 
139664192434176 141 52 49 79 49 49 49 49 
139664187539456 117 110 19 80 49 19 19 57 
139664169975808 141 49 49 49 49 49 19 19 
139664147517440 111 30 19 49 19 30 19 30 
139664125059072 111 22 19 19 19 19 19 44 
139664107495424 162 30 97 23 80 19 80 30 
139664102600704 141 49 62 27 71 79 50 113 
139664085037056 131 19 39 49 39 19 39 49 
139664062578688 391 55 69 19 19 19 19 19 
139664045015040 311 49 49 49 49 49 89 49 
139664040120320 221 49 96 49 97 49 65 49 
139664022556672 111 19 19 19 47 19 19 32 19 
139663977639936 161 49 60 19 49 29 60 40 64 
139663960076288 141 129 49 99 86 129 49 49 49 
139663955181568 141 50 49 59 19 59 91 59 49 
139663937617920 171 60 60 60 60 100 60 126 60 
139663897595904 182 82 60 99 60 90 60 90 90 
139663892701184 141 55 49 74 19 36 49 49 59 
139663875137536 111 19 19 29 19 30 20 31 29 
139663852679168 133 31 20 19 59 19 29 37 229 
139663830220800 338 92 89 79 89 79 89 79 89 
139663812657152 311 49 79 49 49 49 55 49 54 
139663807762432 132 30 70 19 70 19 40 19 59 
139663790198784 194 49 95 49 96 89 66 49 101 
139663767740416 158 60 30 60 90 60 33 60 71 
139663750176768 141 68 49 49 66 59 79 59 67 
139663745282048 147 59 85 19 19 49 49 49 19 
139663727718400 122 60 60 40 30 70 60 40 30 
139663705260032 331 29 24 29 60 29 65 29 49 
139663682801664 111 29 19 29 27 29 19 29 19 
139663665238016 152 61 100 79 49 74 19 80 60 
139663660343296 141 102 99 111 49 120 49 129 91 
139663642779648 111 49 49 19 49 55 19 19 19 
139663620321280 141 66 49 49 49 19 49 49 19 
139663602757632 121 31 29 31 29 31 29 19 29 
139663597862912 322 30 30 30 30 30 30 30 30 
139663580299264 351 119 89 54 59 49 102 49 81 
139663557840896 192 194 40 30 40 60 70 30 80 
139663535382528 211 49 119 86 129 49 140 85 140 
139663517818880 127 19 85 19 55 19 19 49 19 
139663512924160 182 49 99 49 129 49 99 49 99 
139664259809280 359 49 95 49 96 89 96 49 97 
139664237350912 146 60 60 99 65 60 49 30 66 
139664219787264 141 68 49 79 49 89 80 89 49 
139664214892544 177 49 85 49 19 49 49 49 49 
139664197328896 175 78 91 89 49 89 66 89 91 
139664174870528 141 100 60 70 60 70 65 100 49 
139664152412160 353 29 19 59 91 29 19 29 19 
139664134848512 140 19 30 49 30 19 30 19 78 
139664129953792 141 72 53 59 73 60 49 39 49 
139664112390144 111 19 19 19 19 19 19 19 19 
139664089931776 111 19 19 19 19 29 19 29 19 
139664072368128 121 30 29 30 29 31 29 30 29 
139664067473408 152 60 60 60 60 60 60 30 60 
139664049909760 121 19 29 19 29 19 29 19 29 
139664027451392 321 49 59 19 29 19 29 36 39 19 
139664004993024 211 49 100 58 99 49 110 49 110 49 
139663987429376 111 19 33 29 66 19 19 19 19 19 
139663982534656 152 243 39 25 39 51 99 19 99 49 
139663964971008 111 19 260 19 60 49 30 19 30 19 
139663942512640 111 49 19 19 19 19 49 19 29 19 
139663924948992 140 100 60 100 60 100 19 100 60 100 
139663920054272 111 19 49 49 49 19 37 19 19 32 
139663902490624 152 89 85 122 49 101 49 140 49 110 
139663880032256 111 30 219 69 19 69 19 239 19 69 
139663857573888 111 39 19 39 19 69 19 39 19 37 
139663840010240 111 49 19 19 49 19 49 19 19 19 
139663835115520 141 110 49 80 19 80 49 49 19 74 
139663817551872 111 49 49 49 49 49 49 49 19 19 
139663795093504 311 60 49 49 49 60 49 60 79 52 
139663777529856 370 49 59 67 99 86 129 49 69 49 
139663772635136 141 49 49 49 49 49 49 49 50 49 
139663755071488 191 49 110 92 110 30 110 90 30 60 
139663732613120 232 51 140 49 140 49 140 49 55 49 
139663710154752 191 19 39 49 60 19 19 19 43 19 
139663692591104 111 19 29 19 29 19 19 19 19 38 
139663687696384 111 19 19 19 19 49 26 19 19 21 
139663670132736 141 19 49 49 19 32 49 41 59 50 
139663647674368 141 49 78 68 54 79 49 76 50 89 
139663630110720 141 69 49 99 49 69 19 49 49 55 
139663625216000 141 52 73 61 60 70 49 70 49 40 
139663607652352 141 99 50 69 49 79 66 49 49 49 
139663585193984 152 30 60 60 60 60 60 60 30 60 
139663562735616 311 90 19 55 49 49 49 49 59 55 
139663545171968 311 19 19 19 38 19 19 19 19 19 
139663540277248 141 79 59 75 49 50 49 19 49 64 
139663522713600 154 79 71 86 80 60 89 49 89 84 
139664264704000 122 60 60 60 60 60 60 60 79 60 
139664247140352 170 219 59 49 69 44 69 49 129 43 
139664242245632 311 49 19 49 62 102 71 19 80 120 
139664224681984 391 49 140 87 140 60 140 67 60 60 
139664202223616 202 86 110 49 140 76 80 49 49 49 
139664179765248 221 49 99 49 49 55 49 59 80 49 
139664162201600 123 19 30 19 30 49 30 19 30 19 
139664157306880 111 19 59 19 55 19 22 49 19 19 
139664139743232 141 49 88 49 49 49 45 71 49 80 
139664117284864 120 19 19 19 19 19 19 19 219 29 
139664099721216 111 39 19 39 19 39 19 19 19 19 
139664094826496 122 30 30 31 31 40 30 40 30 40 
139664077262848 111 39 19 39 19 56 19 219 49 49 
139664054804480 141 49 49 49 49 55 89 55 49 55 
139664032346112 111 55 19 19 19 22 19 19 19 219 
139664014782464 111 19 19 19 19 19 19 19 19 19 29 
139664009887744 311 19 19 19 19 19 20 19 19 19 19 
139663992324096 311 19 52 57 31 30 70 19 40 19 40 
139663969865728 171 49 89 67 89 91 89 91 89 49 89 
139663952302080 142 30 50 30 60 30 22 30 30 30 30 
139663947407360 121 49 29 49 59 19 29 224 59 194 29 
139663929843712 148 49 49 89 99 49 85 49 86 49 74 
139663907385344 142 49 86 49 85 89 55 49 55 19 19 
139663884926976 128 19 30 49 64 25 45 49 59 49 49 
139663867363328 111 19 19 19 19 29 31 29 19 29 23 
139663862468608 141 89 90 49 79 49 49 49 89 49 59 
139663844904960 142 59 79 59 79 89 65 89 49 59 19 
139663822446592 165 40 30 40 19 40 65 40 19 40 19 
139663804882944 141 96 49 96 49 97 49 95 49 70 49 
139663799988224 183 89 49 102 88 111 49 120 76 129 85 
139663782424576 152 125 60 60 100 60 70 49 60 60 60 
139663759966208 311 85 49 49 49 85 49 49 49 49 49 
139663737507840 129 219 19 19 19 19 19 19 49 19 49 
139663719944192 121 72 59 90 29 36 29 30 59 49 232 
139663715049472 111 62 19 19 19 19 19 19 19 19 19 
139663697485824 121 19 29 19 29 28 59 19 30 19 39 
139663675027456 181 49 108 49 119 91 86 49 99 49 99 
139663657463808 177 49 68 49 90 49 49 49 49 49 49 
139663652569088 184 49 131 49 140 19 140 89 140 49 140 
139663635005440 111 19 70 19 19 19 19 19 19 19 19 
139663612547072 162 60 91 60 60 60 90 60 60 60 49 
139663590088704 141 19 19 19 29 49 29 19 88 49 19 
139663572525056 152 70 69 89 30 119 67 99 19 110 19 
139663567630336 111 219 19 19 19 19 19 19 49 19 19 
139663550066688 111 62 59 101 32 80 219 80 33 80 19 
139663527608320 311 99 49 129 49 129 55 99 30 129 49 
139663510044672 322 64 19 60 19 60 49 60 49 30 49 
139663505149952 111 39 19 39 229 19 19 19 19 19 206 
139664295219200 141 19 21 19 49 19 19 19 19 19 19 
139664290037760 111 19 19 19 19 19 19 19 19 19 19 
139664252035072 152 95 30 54 70 60 30 19 30 60 30 
139664229576704 141 49 49 49 49 99 49 49 49 49 49 
139664207118336 311 80 49 49 49 49 49 49 49 49 49 
139664189554688 332 19 70 60 40 59 70 42 59 19 70 
139664184659968 141 88 49 79 49 19 49 49 49 49 49 
139664167096320 121 25 29 19 42 19 51 19 30 19 39 
139664144637952 181 19 48 19 89 19 56 19 99 49 69 
139664127074304 111 19 19 19 19 19 19 19 19 19 19 
139664122179584 132 30 41 30 50 22 50 30 50 19 80 
139664104615936 111 19 22 19 19 19 21 19 19 19 22 
139664082157568 182 60 90 90 60 90 60 60 60 60 60 
139664059699200 111 49 49 49 49 49 49 49 49 49 51 
139664042135552 111 59 49 29 49 108 97 89 49 99 49 
139664037240832 111 19 49 49 49 49 49 49 49 68 49 
139664019677184 111 262 19 41 19 80 19 50 49 50 19 50 
139663997218816 111 69 19 99 19 69 19 69 19 69 49 56 
139663979655168 111 59 19 30 19 30 19 19 19 30 19 230 
139663974760448 311 39 19 39 19 19 19 19 19 19 19 19 
139663957196800 311 19 49 49 49 49 49 49 19 49 49 49 
139663934738432 111 19 19 19 19 19 19 28 19 19 19 19 
139663912280064 152 60 60 60 60 60 60 60 82 90 91 90 
139663894716416 211 85 86 85 69 49 129 49 129 49 99 49 
139663889821696 141 19 62 68 71 60 50 90 59 60 59 60 
139663872258048 131 22 39 19 39 19 39 19 19 19 33 19 
139663849799680 202 49 140 49 49 49 49 49 74 60 49 60 
139663827341312 191 19 49 49 49 49 24 19 49 59 49 49 
139663809777664 122 19 30 49 60 49 60 73 102 52 54 61 
139663787319296 141 49 49 49 49 68 49 79 49 89 121 59 
139663764860928 111 19 36 19 19 19 47 29 49 29 19 29 
139663742402560 322 61 60 100 60 100 102 100 102 100 60 100 
139663724838912 311 19 49 74 19 43 49 73 49 49 36 49 
139663702380544 111 19 19 19 19 19 19 24 19 25 19 26 
139663684816896 111 19 19 19 19 19 19 34 19 37 19 48 
139663679922176 122 19 95 49 30 19 36 19 60 191 49 49 
139663639900160 144 19 31 72 70 30 40 73 70 60 270 102 
139663617441792 168 79 89 42 59 79 89 43 59 49 102 58 
139663599878144 122 60 19 30 60 60 30 60 30 60 54 30 
139663594983424 151 19 59 20 59 219 59 19 108 19 89 19 
139663554961408 147 19 86 19 84 19 64 59 67 19 19 19 
139663537397760 141 68 60 79 49 89 72 89 60 89 60 89 
139663532503040 188 49 96 49 49 49 49 49 49 49 49 49 
139663514939392 169 78 75 89 49 89 77 89 73 89 113 102 
139664234471424 111 49 19 19 49 78 19 29 19 29 49 29 
139664216907776 141 140 49 110 49 140 49 49 49 49 49 62 
139664212013056 146 50 86 89 49 89 91 89 49 59 49 89 
139664194449408 141 49 49 74 49 85 49 79 49 86 66 74 
139664154427392 311 89 49 49 19 59 49 80 19 82 49 61 
139664149532672 152 214 19 19 30 19 19 19 55 44 19 19 
139664131969024 141 19 19 49 49 19 220 54 29 20 59 49 
139664109510656 122 42 31 30 40 30 40 30 40 30 40 30 
139664069488640 111 19 19 19 19 19 19 20 19 19 19 19 
139664064593920 151 19 29 19 29 24 59 219 59 19 89 19 
139664047030272 162 49 73 49 85 49 49 49 49 49 49 49 
139664024571904 135 19 19 19 54 19 22 19 55 19 19 19 19 
139664007008256 122 49 30 30 19 40 39 40 95 40 30 40 19 
139663984549888 141 49 55 59 80 89 22 89 49 29 61 29 205 
139663962091520 158 59 49 89 49 89 121 59 19 108 19 119 49 
139663939633152 475 40 30 70 30 59 31 40 30 41 19 80 30 
139663922069504 311 19 19 19 159 25 19 41 49 52 19 19 19 
139663899611136 141 86 49 55 49 96 49 49 49 49 49 49 49 
139663877152768 121 19 19 49 19 19 19 19 19 29 19 59 19 
139663859589120 121 19 229 49 59 19 29 19 29 19 29 69 29 
139663854694400 111 19 19 49 49 49 49 19 49 19 19 19 19 
139663837130752 132 60 70 60 100 49 70 19 100 31 101 49 80 
139663814672384 151 49 29 49 59 49 59 49 39 19 69 49 39 
139663792214016 200 49 108 86 88 49 99 19 99 49 129 49 49 
139663774650368 147 49 49 19 226 49 49 49 19 49 19 49 59 
139663769755648 163 54 110 60 110 85 80 30 110 30 80 30 19 
139663752192000 111 19 19 19 19 19 19 19 219 19 36 19 19 
139663729733632 111 19 19 19 220 19 19 19 49 19 19 19 19 
139663712169984 310 59 19 29 19 59 71 29 19 59 19 69 19 
139663707275264 351 49 89 49 49 49 55 49 59 62 49 49 72 
139663689711616 323 29 19 29 19 60 19 39 19 39 27 39 19 
139663667253248 141 131 49 110 49 140 49 140 49 140 49 49 49 
139663644794880 141 99 49 269 49 129 49 69 49 19 49 49 49 
139663627231232 122 70 60 63 60 90 60 61 60 60 60 60 60 
139663622336512 142 99 49 99 49 84 49 114 19 66 29 36 49 
139663604772864 141 49 49 49 49 29 19 49 49 49 49 19 49 
139663582314496 111 19 19 20 19 19 19 28 219 19 19 19 19 
139663564750848 211 19 130 49 80 86 110 49 140 49 80 49 110 
139663559856128 141 84 49 49 62 49 71 61 80 61 59 49 89 
139663542292480 210 19 99 85 129 19 99 19 49 19 19 49 80 
139663519834112 221 97 129 49 129 87 129 49 66 49 56 49 85 
139664261824512 140 19 108 56 58 19 99 19 69 19 99 49 19 
139664244260864 151 19 49 49 56 49 19 49 49 49 49 49 19 
139664239366144 133 57 80 30 80 30 250 49 50 30 50 60 60 
139664221802496 141 49 49 49 49 49 49 49 49 49 53 49 49 
139664199344128 141 49 49 19 49 49 49 49 49 49 49 49 49 
139664181780480 141 89 49 89 49 108 49 119 85 116 49 129 49 
139664176885760 152 49 60 49 60 49 78 49 60 73 68 82 95 
139664159322112 153 89 80 59 49 90 49 99 49 69 49 99 49 
139664136863744 322 41 30 50 30 80 30 50 30 50 19 60 30 
139664114405376 111 39 19 69 19 39 19 39 49 19 19 19 49 
139664096841728 122 30 30 34 30 30 30 30 30 19 30 30 30 
139664091947008 111 69 49 69 19 54 19 64 19 85 19 19 219 
139664074383360 111 229 19 59 19 29 19 59 19 49 19 49 19 
139664051924992 111 49 49 19 19 49 49 49 68 49 68 67 78 
139664034361344 162 49 70 49 80 49 80 49 80 49 80 49 80 
139664029466624 111 49 19 19 19 19 19 19 20 219 29 19 29 19 
139664011902976 150 19 39 19 69 19 69 25 19 19 19 19 19 19 
139663989444608 131 19 69 19 39 23 39 19 19 19 37 19 19 19 
139663966986240 202 60 110 60 56 66 60 60 60 60 96 66 52 66 
139663949422592 129 19 49 19 49 19 49 49 19 49 49 71 62 50 
139663944527872 141 59 55 49 49 49 49 58 49 49 49 49 49 49 
139663926964224 152 60 60 60 60 73 68 82 90 91 60 100 60 100 
139663904505856 311 49 89 49 60 79 60 76 49 89 49 89 60 59 
139663886942208 331 69 19 39 24 69 19 19 19 19 19 19 19 19 
139663882047488 111 19 49 20 19 59 19 29 19 59 19 29 19 29 
139663864483840 111 80 19 110 49 19 60 59 30 19 30 74 30 19 
139663842025472 141 19 19 54 19 19 29 55 29 19 219 114 19 57 
139663819567104 111 19 19 19 19 19 19 19 19 19 19 19 19 19 
139663802003456 141 49 49 49 68 49 68 91 78 49 89 49 89 49 
139663797108736 182 90 130 114 90 115 90 49 90 105 90 90 90 90 
139663779545088 111 19 19 19 20 49 59 19 29 37 29 49 29 59 
139663757086720 182 94 100 90 100 124 100 78 100 99 100 60 119 61 
139663739523072 221 49 129 49 85 49 86 49 52 49 55 49 85 49 
139663734628352 181 60 59 49 89 102 59 30 113 88 122 19 131 49 
139663717064704 303 19 19 49 66 19 66 51 237 25 49 19 36 19 
139663694606336 111 30 19 60 49 30 19 30 19 33 19 49 30 19 
139663672147968 352 55 85 78 86 49 64 49 49 49 49 49 49 49 
139663654584320 311 60 19 27 30 70 60 40 19 70 30 40 19 83 
139663649689600 177 89 96 49 49 49 49 49 49 49 49 49 49 49 
139663632125952 111 59 19 29 31 59 19 29 19 59 19 48 19 29 
139663609667584 111 59 20 29 19 59 59 48 19 48 19 58 19 69 
139663592103936 141 19 25 19 19 49 29 52 49 19 49 56 19 19 
139663587209216 180 70 30 83 19 92 19 101 24 110 31 110 19 110 
139663569645568 111 19 19 55 44 55 19 19 19 19 19 19 19 19 
139663547187200 120 49 49 19 19 70 19 19 19 19 19 19 19 19 
139663524728832 152 49 49 30 49 60 49 60 49 60 49 30 49 60 
139663507165184 181 49 89 91 89 49 89 49 108 50 111 49 120 49 
139664293203968 111 19 219 19 19 19 19 19 49 19 19 19 19 19 
139664266719232 158 96 70 101 60 97 60 49 260 135 60 60 60 90 
139664249155584 141 49 71 37 20 33 59 19 59 67 89 37 59 37 
139664226697216 171 49 89 91 89 49 89 49 89 49 89 91 108 100 
139664209133568 221 85 129 49 20 19 86 19 44 89 85 49 85 49 
139664204238848 192 30 100 59 100 72 100 60 83 47 122 49 131 19 
139664186675200 141 19 19 19 24 19 84 49 56 19 19 29 19 19 
139664164216832 141 49 19 66 49 25 19 36 19 22 19 49 70 19 
139664141758464 147 49 19 49 56 49 222 19 49 49 19 49 49 49 
139664124194816 122 30 30 30 30 40 31 40 30 40 30 40 30 40 
139664119300096 311 19 19 19 19 19 19 19 19 19 19 19 19 19 
139664101736448 322 59 90 59 90 29 90 29 19 59 60 89 19 40 
139664079278080 139 29 31 29 49 259 19 59 19 48 19 29 49 99 
139664061714432 141 74 89 56 49 55 49 52 49 86 85 86 49 49 
139664056819712 111 29 19 29 49 29 19 30 19 39 19 39 19 39 
139664039256064 141 114 49 85 89 85 49 49 49 49 49 49 49 49 
139664016797696 111 19 25 19 19 19 19 29 19 19 19 19 19 19 19 
139663994339328 144 19 19 230 19 36 49 30 49 30 19 30 19 48 49 
139663976775680 121 49 29 19 29 36 29 61 59 219 81 19 60 25 69 
139663971880960 111 19 19 19 19 19 19 28 19 19 19 19 19 19 19 
139663954317312 162 60 70 60 83 49 292 60 101 60 110 60 110 60 110 
139663931858944 181 19 59 19 40 50 67 19 140 49 140 19 80 50 80 
139669184561152 182 
139663914295296 177 55 96 49 101 49 49 49 49 49 49 49 49 49 49 
139663909400576 203 86 120 49 129 49 129 49 129 49 129 49 61 49 49 
139663891836928 141 49 19 19 49 19 19 19 19 19 19 49 49 19 19 
139663869378560 311 19 20 19 19 49 49 19 19 19 49 19 19 19 28 
139663846920192 111 19 19 19 19 19 19 19 19 19 19 19 37 19 19 
139663829356544 111 59 19 48 19 78 43 88 49 99 19 69 49 99 19 
139663824461824 122 49 30 49 30 19 30 19 30 19 19 90 19 40 19 
139663806898176 141 89 49 60 49 129 49 99 62 99 19 99 49 99 49 
139663784439808 152 140 55 140 49 110 57 140 60 110 30 56 66 66 60 
139663766876160 111 19 49 49 49 49 19 50 19 19 19 19 19 19 19 
139663761981440 141 80 19 50 19 49 49 19 49 55 49 19 27 26 19 
139663744417792 141 49 19 19 19 49 49 49 49 49 49 49 62 49 49 
139663721959424 141 49 19 19 49 28 19 29 19 29 49 49 19 72 19 
139663699501056 111 49 19 19 19 19 38 33 41 43 50 49 59 48 59 
139663681937408 132 19 40 19 50 19 50 19 50 19 50 19 19 30 29 
139663677042688 141 49 62 57 71 79 80 49 89 49 89 49 89 79 89 
139663659479040 221 49 129 49 129 80 129 49 61 19 84 49 85 89 85 
139663637020672 331 19 99 19 19 19 96 19 43 19 49 55 95 19 38 
139663619457024 311 19 49 19 19 19 19 49 49 19 49 68 49 38 42 
139663614562304 202 60 84 60 97 60 95 60 96 70 84 60 97 60 49 
139663596998656 141 49 49 49 19 19 49 32 19 41 49 20 19 59 59 
139663552081920 121 49 30 19 28 19 30 29 30 29 30 29 212 29 43 
139663534518272 141 99 92 129 49 129 49 86 49 96 59 84 49 90 49 
139663529623552 111 20 49 59 19 29 49 29 19 59 49 29 19 29 19 
139663512059904 132 49 19 19 30 66 49 79 49 19 60 83 70 49 49 
139664236486656 111 34 19 19 19 19 19 19 49 19 19 19 49 19 19 
139664231591936 141 80 49 80 49 49 49 49 49 49 49 57 49 49 49 
139664214028288 111 49 49 49 19 49 49 49 49 49 49 49 62 22 41 
139664191569920 111 30 19 78 49 60 49 60 49 89 19 49 60 49 57 
139664151547904 162 30 97 60 80 30 80 49 110 30 80 30 24 30 49 
139664146653184 141 58 32 49 41 49 80 19 89 79 59 49 89 50 89 
139664129089536 191 49 99 49 99 49 99 49 49 49 49 49 49 49 68 
139664106631168 161 19 39 19 219 19 43 19 19 19 19 28 49 49 43 
139664089067520 111 19 29 19 19 19 19 19 19 19 19 19 19 19 19 
139664066609152 311 49 49 49 49 49 49 62 63 71 49 80 49 89 89 
139664044150784 171 19 19 49 49 68 20 79 36 89 45 89 31 59 31 
139664021692416 131 79 30 19 54 29 60 70 19 70 41 40 49 40 49 240 
139664004128768 111 69 49 69 49 99 19 19 25 19 19 61 19 66 219 62 
139663999234048 141 50 79 89 49 59 91 89 49 89 49 29 49 89 49 59 
139663981670400 141 60 30 60 60 100 60 30 60 77 60 60 60 60 260 60 
139663959212032 141 73 49 86 49 85 59 55 49 115 49 86 49 52 49 49 
139663941648384 152 60 30 60 30 30 30 60 30 30 30 60 70 60 40 30 
139663936753664 111 19 19 19 19 19 19 19 19 19 219 19 19 19 19 19 
139663919190016 111 19 38 19 49 19 50 60 89 60 29 30 59 60 29 19 
139663896731648 141 61 20 49 29 49 59 49 29 61 29 49 29 19 59 49 
139663874273280 111 23 29 20 29 19 29 19 29 19 29 19 29 19 30 54 
139663856709632 111 19 19 19 19 19 19 19 219 19 19 29 49 19 19 19 
139663851814912 332 30 40 65 70 62 70 60 59 49 70 19 110 19 110 19 
139663834251264 311 49 49 49 49 59 49 49 49 49 49 49 52 49 49 49 
139663811792896 146 60 60 31 125 60 75 60 45 60 19 60 66 60 60 60 
139663794229248 111 38 79 19 19 59 19 59 24 259 19 29 19 59 58 48 
139663789334528 177 89 85 49 49 49 49 49 19 49 49 49 49 49 49 49 
139663771770880 128 89 72 70 60 100 77 70 60 70 60 40 64 100 156 71 
139663749312512 191 59 54 59 120 89 125 89 19 119 49 100 44 97 19 110 
139663726854144 111 29 19 29 19 29 19 29 19 30 19 39 19 39 19 39 
139663709290496 152 219 30 74 30 44 30 19 36 59 19 30 19 30 19 30 
139663704395776 116 29 32 29 19 230 22 39 19 39 19 39 19 39 49 19 
139663686832128 111 19 19 19 19 19 19 19 19 19 19 29 19 22 19 29 
139663664373760 141 66 49 49 19 19 49 49 49 49 49 49 49 49 49 49 
139663646810112 181 79 89 50 89 72 89 49 89 49 108 58 108 49 118 49 
139663641915392 122 60 30 60 60 60 60 30 60 30 60 60 60 30 60 60 
139663624351744 181 61 59 61 59 19 72 28 81 219 90 19 129 19 99 26 
139663601893376 332 30 40 30 40 30 40 30 50 23 250 30 50 27 50 30 
139663579435008 211 49 119 19 129 49 140 49 140 55 170 19 19 19 19 19 
139663561871360 217 49 49 59 105 49 19 19 49 49 49 49 49 19 49 49 
139663556976640 352 49 69 49 39 19 99 49 69 19 99 49 49 19 49 49 
139663539412992 141 49 60 49 60 49 60 49 60 49 60 49 60 49 60 49 
139663516954624 141 49 49 49 58 49 49 49 49 49 49 49 49 49 49 49 
139664263839744 311 68 49 79 49 89 80 59 19 89 49 89 19 89 19 108 
139664258945024 147 89 55 49 49 49 89 49 49 49 49 49 49 49 49 19 
139664241381376 169 49 19 59 37 59 19 89 79 59 19 102 69 59 29 60 
139664218923008 149 100 90 100 90 100 90 100 49 100 49 100 49 127 74 110 
139664196464640 146 59 19 89 91 108 20 89 49 90 49 129 19 99 80 99 
139664178900992 152 61 100 49 66 69 49 75 60 52 49 60 49 60 49 60 
139664174006272 311 72 19 51 19 60 19 69 219 99 19 269 19 69 19 19 
139664156442624 111 19 49 19 29 19 49 19 19 19 19 29 49 59 19 59 
139664133984256 141 19 19 19 19 49 19 49 19 19 219 50 19 19 19 54 
139664116420608 151 60 29 60 29 60 29 60 29 59 89 19 59 19 69 19 
139664111525888 122 40 30 19 30 31 30 30 30 30 30 67 30 30 30 30 
139664093962240 121 19 29 19 29 19 42 27 51 19 30 19 69 19 69 19 
139664071503872 121 49 29 19 29 19 29 49 39 19 69 19 39 19 69 19 
139664049045504 351 19 59 19 69 19 80 19 80 19 80 19 19 19 19 230 
139664031481856 311 19 75 19 19 19 19 19 19 19 22 19 19 19 19 19 
139664026587136 152 19 269 19 39 19 39 19 39 19 69 19 20 22 19 19 19 
139664009023488 111 19 36 19 69 19 30 19 30 19 47 19 28 19 69 19 30 
139663986565120 111 19 19 19 29 19 19 19 19 19 19 19 19 19 19 19 50 
139663969001472 152 70 60 70 30 40 60 100 60 70 24 80 24 80 49 110 30 
139663964106752 141 49 49 49 49 49 49 49 49 49 49 49 49 50 49 59 49 
139663946543104 122 59 19 62 49 71 19 50 49 250 27 50 19 50 19 19 49 
139663924084736 111 60 19 39 19 39 19 69 19 269 19 19 19 19 29 19 51 
139663901626368 188 99 49 129 49 129 61 99 49 85 49 90 49 95 49 96 49 
139663884062720 111 19 19 19 19 19 19 19 19 19 19 19 19 19 19 33 23 
139663879168000 111 50 32 80 19 20 219 44 19 19 30 49 30 19 30 19 30 
139663861604352 111 19 19 19 19 19 19 19 19 19 19 19 19 48 19 36 29 
139663839145984 111 60 49 60 49 30 19 60 49 49 19 72 89 30 70 49 100 
139663821582336 151 49 59 19 99 19 69 19 69 19 99 19 39 49 37 19 49 
139663816687616 311 49 49 49 49 66 49 75 50 79 59 95 59 55 59 61 59 
139663799123968 391 49 140 92 110 60 110 97 30 60 96 60 91 30 96 60 49 
139663776665600 172 19 80 19 140 58 140 19 44 49 19 49 44 19 25 19 26 
139663754207232 191 49 129 49 49 50 49 49 50 49 55 49 56 55 49 79 85 
139663736643584 117 49 19 19 19 49 49 49 49 38 60 71 73 50 30 59 129 
139663731748864 141 49 46 49 96 19 86 49 19 19 126 49 96 49 49 49 19 
139663714185216 141 19 19 19 28 19 19 19 19 50 23 29 49 59 19 29 19 
139663691726848 120 19 19 19 19 19 19 19 19 29 31 29 19 29 19 29 19 
139663674163200 172 129 49 129 49 99 49 49 19 85 89 85 49 56 49 79 49 
139663669268480 152 82 61 91 90 100 60 100 49 100 61 100 49 100 60 100 74 
139663651704832 111 99 50 69 49 66 19 97 49 90 49 101 59 96 19 97 49 
139663629246464 182 95 60 70 96 96 70 96 90 157 90 125 30 49 100 66 60 
139663606788096 111 51 49 49 19 55 53 19 59 55 49 19 19 49 49 19 19 
139663589224448 141 49 49 19 49 49 49 49 49 19 29 19 29 19 29 49 340 
139663584329728 341 55 89 55 49 56 49 49 79 55 49 49 49 49 49 55 49 
139663566766080 324 49 71 64 50 90 89 57 89 78 89 49 59 95 59 19 89 
139663544307712 111 19 59 49 59 49 59 19 29 19 29 19 78 19 29 49 60 
139663526744064 142 49 110 19 34 19 19 30 49 70 61 19 31 49 19 60 19 
139663521849344 151 79 89 49 89 91 89 49 29 84 89 49 120 49 99 49 69 
139663504285696 282 19 19 19 19 20 19 19 219 19 19 19 19 49 19 19 19 
139664291188736 111 19 19 19 19 19 19 19 19 19 19 19 19 19 19 19 19 
139664246276096 372 49 80 49 110 49 110 49 81 49 60 55 49 59 49 49 49 
139664223817728 221 49 129 49 86 49 74 89 85 49 85 49 81 55 74 86 85 
139664206254080 152 49 60 49 60 49 60 49 60 79 84 82 61 91 90 100 159 
139664201359360 147 49 66 49 91 49 56 55 85 89 55 89 96 49 49 49 49 
139664183795712 111 49 58 49 49 49 49 19 49 50 19 29 49 89 49 59 49 
139664161337344 150 49 19 68 279 79 19 49 49 59 61 29 79 59 19 59 49 
139664143773696 172 69 49 69 49 69 49 49 49 49 59 49 49 49 49 49 49 
139664138878976 152 60 90 61 91 70 60 70 60 70 90 70 60 70 72 289 57 
139664121315328 111 39 19 39 19 26 19 19 19 19 19 19 19 19 19 19 20 
139664098856960 122 30 60 63 60 30 60 60 60 60 60 60 62 45 60 60 60 
139664076398592 111 55 19 25 19 25 219 86 49 21 49 49 19 19 19 19 19 
139664058834944 111 19 19 89 68 19 19 49 48 31 59 83 59 19 59 219 370 
139664053940224 141 85 49 85 49 86 49 49 49 64 49 49 49 49 49 49 49 
139664036376576 165 85 82 94 91 120 100 69 100 84 100 120 100 125 70 49 119 
139664013918208 311 362 59 25 29 31 29 23 29 19 29 28 370 49 29 19 230 49 
139663996354560 402 30 50 30 30 30 34 30 30 30 30 30 30 30 22 30 252 30 
139663991459840 121 19 29 19 29 37 59 31 59 19 29 19 30 219 69 19 69 30 
139663973896192 118 49 19 19 49 25 25 19 26 49 49 59 25 49 49 49 19 19 
139663951437824 141 49 56 49 49 49 55 49 49 49 49 49 59 49 52 49 79 49 
139663928979456 188 19 91 19 56 55 68 49 19 49 19 19 19 19 19 49 19 19 
139663911415808 141 49 49 19 49 29 19 29 49 59 73 259 49 102 49 81 49 90 
139663906521088 141 59 85 49 49 49 49 49 49 49 49 49 49 49 49 49 49 49 
139663888957440 111 29 49 59 53 29 19 89 19 59 49 248 57 29 37 69 74 168 
139663866499072 111 40 30 40 70 40 40 40 19 40 24 40 19 80 19 50 19 149 
139663848935424 141 66 19 36 19 67 19 95 19 66 19 61 19 19 19 85 19 19 
139663844040704 146 29 20 42 32 51 42 60 46 69 19 69 19 69 42 69 50 368 
139663826477056 122 35 30 60 70 36 30 19 30 49 30 30 30 30 30 60 60 317 
139663804018688 141 80 49 19 49 64 49 19 49 49 49 49 49 49 49 49 49 49 
139663781560320 311 19 19 19 19 19 19 19 19 49 19 19 19 19 49 19 32 121 
139663763996672 321 40 29 35 29 49 59 42 29 19 32 19 41 19 50 19 191 20 
139663759101952 141 19 49 49 19 49 49 49 19 49 19 19 19 48 19 49 19 54 
139663741538304 181 80 89 49 102 49 111 49 120 19 129 50 129 49 99 49 129 49 
139663719079936 121 19 29 19 59 49 29 19 69 49 39 49 69 49 39 49 92 49 
139663701516288 311 29 19 19 19 19 19 19 19 19 19 19 29 19 19 19 140 19 
139663696621568 132 20 71 19 50 19 50 19 50 19 80 19 19 19 23 30 19 139 
139663679057920 159 55 52 19 19 49 82 19 20 49 52 19 49 19 71 19 49 19 
139663656599552 152 60 60 60 60 60 60 60 60 60 60 60 60 60 60 79 77 178 
139663634141184 111 19 24 219 29 19 19 19 58 19 19 32 19 19 27 250 230 188 
139663616577536 152 100 60 119 60 89 60 99 49 140 49 110 60 110 55 60 60 96 
139663611682816 141 19 49 19 41 19 19 49 49 38 79 79 28 59 67 89 79 400 
139663594119168 141 122 49 131 49 110 85 140 49 140 49 140 49 110 49 85 49 49 
139663571660800 141 129 86 129 49 129 49 99 49 69 49 86 49 85 19 60 49 49 
139663554097152 174 64 49 60 49 60 49 30 49 60 49 88 49 60 49 30 190 49 
139663549202432 328 69 97 69 19 49 49 19 49 84 49 49 49 89 49 49 49 60 
139663531638784 311 49 49 49 49 49 49 49 49 49 49 49 62 85 71 79 80 178 
139663509180416 141 49 49 49 49 49 49 49 49 78 68 49 49 49 76 49 89 178 
139664251170816 121 55 19 49 19 19 19 19 19 49 49 19 19 19 49 24 32 19 
139664233607168 222 90 100 150 130 129 130 90 149 49 152 62 161 49 170 49 281 49 
139664228712448 311 49 19 49 49 49 49 25 49 49 49 49 49 78 49 61 79 91 
139664211148800 351 91 89 79 102 88 111 49 120 49 99 50 129 49 129 49 129 49 
139664188690432 181 19 29 49 59 49 86 49 129 49 69 49 69 49 69 49 49 49 
139664171126784 111 19 19 19 19 19 19 19 29 19 19 19 59 19 19 19 140 19 
139664166232064 184 30 271 60 50 252 80 60 80 30 80 30 60 30 19 30 79 60 
139664148668416 111 219 22 19 19 19 22 19 19 19 22 19 19 19 19 19 19 19 
139664126210048 122 30 30 30 30 30 30 30 30 30 30 30 30 30 40 30 30 30 
139664103751680 111 19 19 49 19 19 29 19 49 19 19 19 49 19 72 50 60 128 
139664086188032 147 29 24 59 19 59 19 59 19 39 225 39 19 39 19 19 49 19 
139664081293312 141 19 19 19 19 19 19 19 19 19 19 19 375 59 67 29 19 170 
139664063729664 141 100 19 101 62 80 49 140 63 140 49 80 19 110 49 74 30 49 
139664041271296 141 129 56 129 49 99 51 129 49 129 49 86 49 55 89 85 49 49 
139664023707648 152 57 49 60 49 60 49 60 49 60 49 60 49 60 19 60 360 60 52 
139664018812928 141 39 19 39 49 19 19 19 19 19 19 19 19 19 19 19 19 19 219 
139664001249280 111 49 49 19 19 19 19 49 19 49 49 49 49 68 49 91 80 220 89 
139663978790912 311 19 19 19 19 19 19 19 19 19 19 19 19 19 216 19 29 123 29 
139663956332544 152 60 60 60 60 60 79 60 60 60 61 90 100 60 70 60 70 66 100 
139663938768896 121 55 56 49 69 19 69 19 39 19 69 19 55 49 30 19 19 19 19 
139663933874176 111 19 19 19 19 30 20 30 29 30 29 30 29 30 29 19 29 141 29 
139663916310528 191 49 69 49 129 54 129 19 72 49 49 49 55 19 96 49 67 49 65 
139663893852160 232 49 80 49 49 49 49 49 49 60 49 60 49 30 61 30 61 60 49 
139663876288512 111 19 19 19 19 19 20 19 19 19 19 19 19 19 19 19 31 29 219 
139663871393792 131 19 19 19 19 19 19 29 19 19 19 19 19 19 19 29 23 19 19 
139663853830144 152 49 30 49 60 49 60 49 49 82 90 61 60 70 49 70 60 169 60 
139663808913408 111 38 19 49 67 48 49 59 79 29 19 29 91 59 49 102 19 350 55 
139663791349760 176 140 49 140 49 140 49 56 49 74 89 55 49 85 49 86 49 74 89 
139663786455040 170 61 30 70 66 40 60 70 30 70 84 70 60 89 60 100 69 208 60 
139663768891392 111 19 19 55 19 49 19 49 55 26 19 49 49 38 19 34 49 49 19 
139663728869376 311 19 49 49 19 78 49 19 19 49 49 49 59 49 29 49 170 78 59 
139663723974656 141 74 49 49 49 75 49 49 48 74 49 60 49 30 49 30 19 60 19 
139663706411008 111 19 19 19 19 49 20 50 29 19 29 19 29 49 29 19 29 61 29 
139663683952640 144 72 61 30 40 94 70 30 70 61 70 72 70 65 40 19 70 19 40 
139663643930624 122 30 30 30 25 30 254 30 19 30 54 30 54 60 19 30 146 60 30 
139663639035904 151 37 59 55 59 19 59 31 59 19 59 49 99 32 69 49 99 49 99 
139663621472256 111 19 25 19 32 29 225 19 25 19 19 19 19 19 19 219 19 19 19 
139663599013888 111 19 19 19 19 19 41 19 19 19 19 19 19 19 24 19 19 19 19 
139663581450240 141 68 60 49 39 59 67 59 60 59 54 89 19 59 28 59 19 62 49 
139663558991872 134 48 237 59 108 59 59 59 67 89 38 72 19 81 19 90 49 398 49 
139663536533504 141 89 91 89 49 89 49 89 49 108 49 119 85 116 49 129 49 228 49 
139663514075136 311 40 19 70 60 59 50 92 19 101 19 310 19 80 50 80 19 179 19 
139664260960256 141 140 76 140 49 140 49 49 79 74 89 85 49 55 49 86 49 74 89 
139664256065536 141 80 49 89 49 89 61 59 49 89 49 89 49 89 49 89 91 400 49 
139664238501888 111 19 19 19 259 29 19 55 19 26 41 19 49 25 19 55 19 19 19 
139664216043520 141 66 49 19 19 96 89 71 49 66 49 49 49 70 49 49 49 49 49 
139664198479872 141 49 49 49 49 49 68 49 49 79 76 50 89 72 89 49 200 49 89 
139664193585152 362 109 49 104 62 80 60 49 100 49 49 60 49 60 49 60 49 60 49 
139664176021504 311 19 19 67 19 19 20 19 29 37 229 31 29 19 59 19 29 19 48 
139664153563136 122 60 31 30 40 30 40 60 40 61 40 60 70 30 70 27 40 19 40 
139664131104768 111 260 29 30 29 19 29 19 29 19 29 19 32 19 41 28 50 51 50 
139664113541120 122 30 38 30 30 30 30 31 30 30 30 30 30 30 19 30 30 30 39 
139664108646400 121 19 29 19 29 19 29 27 29 19 29 19 239 19 39 19 69 19 39 
139664091082752 147 19 19 19 21 89 55 19 26 19 19 19 56 19 49 19 49 19 25 
139664068624384 111 19 19 19 19 19 19 29 19 19 19 19 19 19 19 19 19 19 19 
139664051060736 152 19 229 30 27 40 26 100 94 70 60 70 49 70 72 89 49 70 49 
139664046166016 176 49 84 49 49 49 49 49 49 49 49 49 49 49 49 49 49 49 54 
139664028602368 111 19 19 29 19 29 19 29 19 29 29 29 20 29 19 30 19 138 19 39 
139664006144000 181 89 79 89 61 89 49 59 49 78 49 89 80 89 85 69 49 398 49 99 
139663983685632 146 40 47 40 42 89 30 70 30 41 30 50 19 80 30 50 30 149 30 30 
139663966121984 111 22 59 50 19 55 219 56 19 19 19 19 19 19 19 19 19 19 19 19 
139663961227264 311 53 19 92 19 41 19 110 19 110 19 280 19 80 19 19 49 19 19 55 
139663943663616 322 49 60 60 60 49 60 60 60 61 60 60 60 260 60 90 60 60 60 60 
139663921205248 117 30 49 49 49 49 49 49 49 88 49 49 19 19 49 89 49 49 62 67 
139663903641600 181 49 89 50 89 79 59 49 89 49 108 99 108 92 118 49 240 87 129 49 
139663898746880 141 49 49 49 49 49 49 49 49 49 49 49 49 49 49 49 68 71 79 55 
139663881183232 192 90 70 120 100 49 70 19 100 49 101 49 140 49 80 19 110 19 110 19 
139663858724864 121 19 59 49 59 19 89 19 69 20 39 19 69 19 69 19 69 19 26 20 
139663836266496 121 19 29 49 59 19 39 19 39 19 69 19 19 19 19 19 19 19 19 19 
139663818702848 111 29 22 29 19 19 19 19 19 19 19 19 29 19 19 19 19 19 19 19 
139663813808128 193 54 80 60 140 60 140 49 110 60 80 90 60 90 56 60 60 181 54 60 
139663796244480 111 49 19 19 19 19 19 19 49 19 43 19 19 19 19 19 48 49 49 19 
139663773786112 116 19 19 19 19 19 19 19 19 19 19 19 19 19 19 19 19 319 19 29 
139663756222464 111 29 19 29 19 48 19 59 19 56 19 69 19 269 19 69 19 99 19 55 
139663751327744 111 49 89 19 19 19 58 49 19 32 19 71 90 50 42 59 30 158 43 59 
139663733764096 153 89 91 89 49 90 19 99 49 99 49 299 49 99 49 95 49 49 49 126 
139663711305728 311 41 19 110 19 50 19 80 19 50 19 49 19 19 19 19 60 19 69 19 
139663688847360 111 39 19 39 19 39 19 39 19 19 19 19 19 19 29 19 29 19 19 19 
139663671283712 152 60 60 60 60 60 60 60 60 60 60 49 60 60 73 60 193 90 61 90 
139663666388992 177 129 49 99 49 61 49 95 49 96 89 73 49 97 19 125 19 49 49 96 
139663648825344 141 49 49 49 49 49 49 49 49 49 49 49 68 60 79 49 89 201 89 49 
139663626366976 111 19 19 20 19 19 19 19 19 36 19 19 19 19 29 237 29 19 29 37 
139663608803328 121 19 70 19 80 19 80 19 50 49 50 19 80 49 19 49 49 59 49 49 
139663603908608 111 49 49 19 49 19 41 46 50 49 59 38 59 19 59 49 29 153 29 19 
139663586344960 121 19 39 19 39 19 39 19 19 19 19 19 19 19 19 19 41 19 19 19 
139663563886592 161 49 99 49 99 66 69 49 86 49 56 49 63 89 49 89 96 49 94 49 
139663541428224 172 49 80 49 19 30 61 70 31 19 31 30 45 66 49 70 44 19 30 19 
139663523864576 141 49 49 49 49 19 49 49 19 38 49 71 92 80 79 89 318 29 49 89 
139663518969856 171 49 85 49 85 49 86 49 74 89 85 55 90 49 19 49 49 49 49 49 
139664294354944 112 49 19 19 49 19 19 49 38 19 49 49 49 49 49 49 19 49 19 49 
139664265854976 141 49 49 49 49 49 49 49 49 49 49 49 49 49 49 49 78 167 80 79 
139664243396608 141 49 49 19 68 49 49 49 49 19 49 49 49 68 49 41 67 179 79 89 
139664225832960 178 89 54 89 49 108 49 119 59 116 49 129 49 129 49 129 51 129 19 85 
139664220938240 152 49 60 49 60 49 60 49 60 49 68 82 60 91 55 100 60 369 61 100 
139664203374592 141 108 55 111 49 120 49 129 49 129 49 129 49 129 49 61 49 49 19 96 
139664180916224 152 131 60 110 30 140 60 140 60 140 30 30 60 101 60 96 60 19 30 95 
139664158457856 439 129 49 99 49 99 49 99 49 85 49 85 49 84 49 85 74 49 49 56 
139664140894208 322 30 30 60 30 30 30 30 30 30 30 30 30 30 43 36 163 48 31 30 
139664135999488 141 69 49 99 49 49 49 49 49 85 67 49 49 49 49 49 49 49 89 49 
139664118435840 111 19 19 19 19 19 19 29 19 19 19 19 19 29 19 19 29 128 29 19 
139664095977472 111 19 19 20 19 19 219 19 38 41 19 19 19 19 29 19 229 49 29 19 
139664078413824 132 19 40 49 110 29 50 49 80 19 80 19 80 19 19 49 19 19 44 36 
139664073519104 111 19 19 19 19 19 19 19 20 23 29 19 29 19 29 19 29 130 29 19 
139664055955456 121 19 39 19 39 26 39 19 19 19 19 29 19 219 19 19 49 49 19 229 
139664033497088 161 19 69 19 69 219 69 19 19 19 19 19 19 49 19 229 19 19 19 25 
139664011038720 202 30 80 30 30 30 60 30 54 30 24 30 19 60 30 30 19 30 19 60 30 
139663993475072 111 219 49 19 54 19 19 19 19 19 19 19 19 50 54 29 19 59 19 29 19 
139663988580352 311 49 20 19 19 19 19 19 19 49 19 19 26 19 19 19 19 19 219 19 59 
139663971016704 152 60 66 60 99 73 60 82 90 91 60 100 60 100 66 100 90 369 60 70 60 
139663948558336 111 19 59 38 119 79 121 46 19 59 162 59 150 59 138 89 19 212 19 122 19 
139663930994688 153 99 49 129 49 129 49 49 49 66 49 55 49 97 49 95 49 55 49 80 49 
139663926099968 311 71 49 80 79 89 49 89 49 89 49 89 54 89 49 108 49 218 49 129 86 
139663908536320 311 140 50 140 19 74 60 45 60 43 60 74 100 44 60 45 30 49 60 79 19 
139663886077952 111 19 19 219 19 19 29 25 19 55 19 19 49 19 59 19 19 19 19 19 19 
139663863619584 151 66 49 101 49 49 19 49 89 66 49 49 49 49 19 49 49 49 49 49 49 
139663846055936 141 49 49 49 49 198 49 67 49 91 89 61 89 49 89 67 170 53 59 50 59 
139663841161216 122 36 30 36 30 25 49 19 30 215 30 30 30 30 30 60 30 30 30 30 30 
139663823597568 124 37 41 43 50 49 59 19 59 37 59 19 59 54 59 19 59 19 59 19 59 
139663801139200 182 60 100 102 100 60 100 60 100 60 100 102 119 91 122 60 131 60 140 60 140 
139663783575552 191 49 129 49 74 49 86 49 49 49 115 49 85 49 86 49 49 49 49 49 49 
139663778680832 151 30 59 49 59 49 59 60 229 49 62 49 71 49 80 20 80 60 110 49 80 
139663761117184 159 49 58 89 85 49 90 49 86 49 55 89 49 49 49 49 49 49 49 49 49 
139663738658816 141 60 75 39 49 60 19 60 49 60 49 49 60 49 60 19 60 49 60 49 60 
139663716200448 111 19 55 19 26 19 39 19 19 19 19 19 19 19 19 19 19 19 19 19 19 
139663698636800 122 230 29 27 30 40 31 40 30 40 30 40 19 40 22 40 19 41 19 50 27 
139663693742080 311 49 19 49 49 19 49 49 19 49 49 49 19 19 50 19 49 49 28 49 19 
139663676178432 334 89 49 89 49 89 50 89 49 89 49 108 49 119 49 129 49 228 49 129 85 
139663653720064 142 89 79 89 49 89 49 108 49 89 49 89 49 129 76 99 49 228 86 49 49 
139663636156416 121 19 86 30 19 49 88 19 19 51 19 56 49 19 49 49 49 59 19 19 19 
139663631261696 140 100 60 70 30 62 60 101 30 80 60 50 30 80 19 80 30 209 60 31 30 
139663613698048 141 54 49 90 89 90 49 49 49 49 49 49 49 49 49 49 49 49 49 49 49 
139663591239680 146 19 49 19 19 49 19 49 49 19 19 19 49 19 49 19 19 19 19 19 19 
139663568781312 144 49 49 19 49 66 49 60 49 60 49 60 49 60 49 30 49 61 52 90 91 
139663551217664 181 19 59 49 59 49 59 49 89 49 59 19 60 49 69 49 240 49 99 66 99 
139663546322944 111 19 49 19 49 49 49 49 49 49 19 19 19 49 49 79 49 172 76 73 89 
139663528759296 192 102 70 99 83 49 122 19 131 49 140 50 110 49 110 49 310 19 49 49 49 
139663506300928 181 49 108 49 119 74 116 49 129 49 99 49 129 44 129 49 55 19 86 49 84 
139664289173504 111 19 49 19 19 49 19 49 49 49 49 49 49 19 49 19 19 49 49 43 19 
139664253186048 191 19 99 49 55 49 86 55 55 59 55 49 85 19 86 79 19 19 49 49 49 
139664248291328 162 60 70 49 70 48 40 60 253 49 92 19 71 49 110 49 80 30 80 19 110 
139664230727680 144 49 49 49 55 49 54 49 52 49 49 49 49 49 259 49 49 49 49 49 49 
139664208269312 136 49 80 30 19 67 74 49 31 19 19 19 30 19 60 49 30 49 30 19 60 
139664185810944 147 49 85 49 56 49 64 49 49 49 49 49 49 49 49 49 89 49 49 49 49 
139664168247296 151 30 60 227 30 40 61 70 60 40 60 70 30 70 79 40 19 71 84 80 30 
139664163352576 111 19 19 19 19 19 20 19 19 19 19 19 19 19 19 19 19 19 28 19 19 
139664145788928 122 59 60 29 30 59 60 29 19 59 30 59 19 270 19 80 19 209 19 80 19 
139664123330560 311 29 31 229 31 29 19 29 19 29 19 229 19 39 19 39 19 138 226 19 19 
139664105766912 311 19 49 32 19 19 29 25 49 19 19 26 49 49 19 19 19 19 49 19 19 
139664100872192 145 29 49 59 19 29 49 230 19 39 19 39 54 39 19 69 49 138 19 49 19 
139664083308544 160 84 49 49 89 85 66 49 49 55 49 49 49 49 49 49 49 49 49 49 49 
139664060850176 141 55 49 49 49 19 19 19 49 49 49 49 49 19 49 49 49 49 49 49 68 
139664038391808 192 74 49 60 49 60 49 60 49 60 49 60 49 60 49 60 73 71 82 90 91 
139664020828160 121 219 59 19 29 19 29 61 89 19 29 19 60 19 99 49 150 49 39 19 69 49 
139664015933440 111 19 19 19 19 19 19 19 19 29 19 19 19 19 19 19 19 34 19 19 29 19 
139663998369792 132 60 70 289 70 49 292 60 101 60 80 60 110 49 110 60 110 60 230 60 49 100 
139663975911424 121 19 59 19 40 19 37 19 50 19 50 19 50 19 50 19 45 19 19 19 22 19 
139663958347776 177 60 85 60 85 60 49 60 60 60 60 60 60 60 60 60 60 60 60 60 60 73 
139663953453056 203 19 90 49 99 19 69 74 69 49 99 49 49 49 52 49 55 49 73 49 56 49 
139663935889408 148 25 23 49 49 19 19 19 59 49 19 19 59 49 19 19 19 19 19 49 29 49 
139663913431040 141 49 49 49 49 49 49 49 49 49 49 49 49 49 49 68 66 49 50 78 79 59 
139663890972672 311 49 49 49 49 49 49 49 49 19 49 49 49 49 91 80 83 188 49 89 91 59 
139663873409024 311 29 19 59 19 59 19 228 19 39 39 39 19 69 20 19 19 19 19 19 19 19 
139663868514304 122 19 30 19 30 219 30 19 30 19 30 30 19 40 19 40 24 151 34 40 19 40 
139663850950656 180 59 49 90 76 99 49 129 86 99 49 99 76 99 49 96 49 19 49 49 89 296 
139663828492288 188 110 60 110 30 80 30 110 60 110 60 56 60 30 78 126 66 19 60 26 66 60 
139663810928640 111 52 49 19 19 19 19 55 49 49 19 49 19 19 49 49 52 19 49 49 50 19 
139663806033920 141 140 26 110 56 49 19 19 49 55 49 55 19 51 49 19 89 60 49 55 49 49 
139663788470272 141 37 19 49 49 49 19 49 49 49 49 19 49 57 49 79 80 49 59 49 89 76 
139663766011904 141 49 49 56 49 58 49 88 49 59 68 89 79 78 49 76 89 159 89 90 59 60 
139663743553536 141 49 49 49 49 19 38 67 41 49 80 91 59 49 89 45 89 49 89 24 89 49 
139663725989888 162 19 67 19 80 19 80 19 80 20 80 19 19 30 19 34 19 19 19 30 19 30 
139663721095168 141 19 49 19 19 61 20 49 29 49 29 49 29 19 29 19 29 365 59 39 78 35 
139663703531520 131 19 39 19 39 19 39 19 19 19 19 19 219 24 19 19 19 319 24 19 19 59 
139663681073152 131 49 69 19 19 49 19 19 49 49 19 49 49 19 49 59 19 49 19 19 49 19 
139663663509504 141 49 49 49 49 49 49 49 49 49 49 68 49 68 53 78 49 59 54 89 19 89 
139663658614784 372 60 60 30 55 30 120 60 54 30 54 60 55 69 19 30 39 30 30 30 30 60 
139663641051136 312 49 49 49 49 49 49 49 376 49 83 80 49 59 49 59 67 158 53 89 49 89 
139663618592768 141 49 49 49 49 68 49 79 49 89 54 89 49 89 114 89 49 188 79 108 49 111 
139663596134400 111 68 49 38 108 48 60 89 90 89 19 89 108 59 90 83 19 191 49 131 49 140 
139663578570752 111 99 117 99 19 99 49 67 49 49 55 84 49 114 19 82 49 49 89 96 19 19 
139663573676032 170 80 49 89 55 59 80 59 55 89 63 59 19 89 19 89 80 227 55 99 19 99 
139663556112384 125 19 19 47 30 19 30 31 29 19 30 19 40 31 19 19 19 19 19 30 19 30 
139663533654016 141 60 49 86 49 49 89 90 49 90 19 86 49 19 49 49 49 49 49 49 49 49 
139663516090368 152 60 60 60 60 60 79 106 90 97 87 98 100 90 100 101 211 102 100 60 113 69 
139663511195648 181 96 19 126 49 67 49 74 59 96 19 19 19 49 49 49 49 19 49 49 19 49 
139664258080768 111 19 49 49 19 19 49 49 19 49 49 49 32 80 71 79 80 178 89 79 89 49 
139664235622400 141 30 49 60 19 60 19 30 19 30 49 49 60 49 57 49 70 129 70 30 70 60 
139664213164032 141 49 49 49 49 49 68 49 71 50 80 72 89 49 89 49 89 149 89 49 89 49 
139664195600384 192 91 97 60 140 30 140 60 140 91 140 30 101 30 91 60 49 60 66 70 91 60 
139664190705664 141 49 49 49 19 49 50 61 89 49 59 49 89 79 89 49 89 49 89 46 108 74 
139664173142016 191 49 69 49 99 49 69 49 49 49 49 49 49 49 73 49 49 49 49 49 59 237 
139664150683648 131 49 69 19 19 19 44 37 19 19 86 19 54 19 19 26 19 318 19 49 49 19 
139664133120000 151 19 59 19 19 19 59 19 219 19 19 38 28 38 57 48 431 59 60 59 39 29 
139664128225280 142 60 97 60 60 61 60 60 60 30 60 60 60 61 49 60 75 60 70 60 60 60 
139664110661632 112 19 41 19 19 19 19 19 19 219 19 20 19 29 19 29 19 128 19 29 218 29 
139664088203264 311 49 19 49 49 19 49 49 49 29 64 59 19 59 19 29 49 158 61 59 19 29 
139664065744896 152 79 57 79 78 89 120 100 125 100 67 300 78 100 95 100 49 199 49 101 49 110 
139664048181248 141 129 76 129 19 129 49 67 55 74 49 66 49 66 49 49 49 74 49 64 49 49 
139664043286528 111 20 19 59 19 29 231 59 19 59 19 29 19 59 19 89 19 140 19 69 19 69 
139664025722880 141 30 30 69 30 54 30 24 30 19 30 60 30 54 30 55 60 19 30 60 30 19 30 
139664003264512 141 49 49 71 49 49 49 49 49 49 49 71 49 87 49 49 49 49 49 49 49 49 49 
139663985700864 122 230 30 69 30 30 30 30 60 30 60 30 40 30 70 30 151 30 40 60 70 19 40 
139663980806144 111 19 19 19 19 19 19 19 19 19 19 19 19 19 19 19 19 348 19 19 19 50 19 
139663963242496 141 49 68 72 49 90 50 90 59 90 59 120 59 103 89 49 89 201 119 79 130 49 110 
139663940784128 111 37 50 79 59 50 59 19 59 19 59 58 29 48 78 28 48 19 58 19 69 19 299 
139663918325760 168 79 59 80 89 79 89 79 89 49 59 53 89 95 90 54 129 49 99 49 69 49 69 
139663900762112 141 49 55 49 73 19 74 49 54 19 73 59 60 49 19 19 360 19 19 49 49 49 49 
139663895867392 162 49 40 30 70 49 40 60 59 19 100 49 80 203 110 61 80 49 110 19 110 19 19 
139663878303744 129 19 49 49 49 59 19 19 49 19 19 19 52 19 49 19 19 19 20 19 19 49 19 
139663855845376 316 30 25 30 35 60 19 30 25 30 19 30 30 30 30 30 30 30 30 30 30 30 30 
139663838281728 311 68 79 79 49 89 91 89 91 89 79 89 88 89 88 108 49 111 49 90 49 99 49 
139663833387008 152 19 25 19 19 19 49 19 19 19 19 19 19 19 219 49 19 19 49 19 29 49 49 
139663815823360 122 60 48 40 30 240 30 40 30 40 30 40 32 40 230 71 30 179 60 50 30 80 60 
139663793364992 141 59 49 59 60 59 102 59 19 29 49 70 20 67 79 110 49 179 49 80 80 110 49 
139663770906624 200 89 49 89 63 78 49 89 49 90 49 129 49 69 49 69 79 198 49 84 49 49 49 
139663753342976 128 19 55 44 30 44 30 45 30 52 19 30 19 63 19 30 19 60 19 60 19 60 19 
139663748448256 116 29 32 29 19 30 38 39 19 39 19 39 19 39 59 19 19 19 19 19 19 19 20 
139663730884608 311 49 19 19 19 19 19 19 19 19 19 19 19 19 219 19 19 49 19 19 19 19 19 
139663708426240 111 36 49 19 49 49 49 89 19 49 19 80 49 79 49 49 19 19 49 49 49 49 50 
139663690862592 121 19 29 31 29 31 29 19 29 31 29 19 29 19 29 19 150 19 39 19 239 20 19 
139663685967872 122 30 30 30 30 30 30 52 30 60 30 30 30 30 30 30 30 328 60 30 40 30 40 
139663668404224 181 49 89 49 89 49 102 49 111 49 120 49 129 49 129 26 129 49 129 76 129 49 96 
139663645945856 222 90 100 69 130 90 130 90 80 97 110 49 110 60 140 97 140 60 101 60 60 60 60 
139663623487488 381 19 59 19 69 19 110 19 110 19 80 233 19 19 44 49 85 19 19 19 56 19 74 
139663605923840 311 19 33 19 19 19 19 19 19 19 21 19 19 19 19 19 19 19 24 19 19 19 19 
139663601029120 152 19 69 19 39 19 99 49 39 49 69 49 49 49 49 37 19 19 49 19 19 49 56 
139663583465472 111 19 19 19 30 19 30 19 30 19 34 19 30 19 39 19 59 19 48 30 29 27 30 
139663561007104 111 49 49 49 49 19 49 49 29 19 49 49 49 19 49 49 79 179 19 59 19 59 49 
139663543443456 168 270 95 70 49 59 49 100 49 127 49 110 19 80 49 110 49 110 49 49 30 49 60 
139663538548736 141 49 49 49 49 49 49 19 49 62 52 71 79 80 49 89 54 188 50 89 79 89 49 
139663520985088 153 59 80 81 49 60 49 69 49 69 49 99 49 69 49 49 49 88 49 49 59 73 19 
139664262975488 149 100 102 100 60 100 90 100 49 119 49 130 50 127 49 140 49 239 49 140 49 140 49 
139664240517120 129 59 236 59 58 59 49 59 52 120 49 69 19 69 49 69 43 198 49 54 19 19 79 
139664222953472 152 61 60 69 49 79 49 75 60 52 49 60 49 60 49 60 49 60 49 60 49 60 49 
139664218058752 111 29 88 59 49 120 49 99 20 69 49 69 49 99 19 19 19 49 49 49 19 49 58 
139664200495104 141 86 49 85 89 85 49 49 49 49 49 49 49 49 49 49 49 49 49 49 49 49 68 
139664178036736 141 64 49 49 49 49 49 49 49 49 49 49 49 49 49 49 49 49 62 91 71 49 80 
139664160473088 121 19 229 19 29 30 29 19 29 19 29 19 29 19 39 19 161 19 50 19 250 19 19 
139664155578368 122 30 30 63 60 30 30 30 30 60 30 33 30 30 30 30 249 60 30 69 70 60 70 
139664138014720 121 19 29 37 29 19 272 19 29 19 60 43 69 19 99 49 39 19 99 49 69 19 25 
139664115556352 121 19 59 61 59 49 29 19 69 249 69 19 69 19 39 49 39 19 41 19 19 49 19 
139664093097984 151 19 59 19 69 19 80 19 280 19 50 19 19 19 19 30 31 19 19 29 19 30 19 
139664075534336 311 19 68 19 19 19 19 19 19 19 22 19 19 219 19 19 31 19 20 49 19 19 31 
139664070639616 322 19 39 19 39 20 39 19 39 19 69 19 19 19 19 19 19 166 19 29 19 19 19 
139664053075968 311 49 78 49 60 49 90 49 60 49 94 49 60 49 60 49 60 178 72 90 60 87 102 
139664030617600 111 19 19 19 19 19 29 19 29 19 19 19 19 19 19 19 20 119 31 29 31 29 31 29 
139664013053952 122 70 35 40 30 89 30 40 36 67 19 80 25 80 30 80 19 80 30 19 30 19 231 134 
139664008159232 111 19 19 19 19 19 25 19 20 19 19 19 19 20 19 29 19 328 19 29 50 29 31 59 
139663990595584 134 59 19 62 19 41 27 50 19 80 19 80 19 50 19 19 19 23 19 19 29 19 19 19 
139663968137216 141 60 49 69 49 69 49 69 49 69 49 49 49 49 59 49 49 49 49 49 49 49 59 49 
139663945678848 141 99 19 39 22 69 19 69 49 79 79 19 19 19 49 49 19 49 49 237 50 49 49 63 
139663928115200 141 49 49 49 49 49 49 49 49 49 49 49 49 49 62 50 182 49 80 49 89 49 89 50 
139663923220480 141 80 49 80 49 20 49 19 60 231 30 49 30 49 60 73 19 44 60 49 49 60 49 29 
139663905656832 141 49 49 49 49 49 49 49 49 49 49 49 68 49 79 49 89 91 89 49 89 49 89 49 
139663883198464 141 60 49 61 49 60 49 30 79 49 49 49 59 60 100 60 100 326 70 60 70 60 70 49 
139663865634816 151 58 59 49 69 49 129 59 69 49 99 49 69 49 60 49 49 67 66 49 49 49 67 49 
139663860740096 111 29 19 19 19 219 19 20 20 19 29 35 29 19 29 19 29 130 29 19 29 41 29 19 
139663843176448 192 49 80 30 80 30 80 30 60 60 30 30 30 60 36 60 82 30 30 30 60 60 30 60 
139663820718080 342 49 80 19 110 49 80 19 55 49 56 49 49 59 49 49 49 19 56 49 65 49 19 19 
139663798259712 221 86 129 49 86 55 74 89 85 49 85 49 86 55 85 49 85 49 49 49 49 49 49 49 
139663780696064 111 19 19 19 19 49 49 19 19 38 30 19 89 20 61 29 19 29 30 229 60 59 19 59 
139663775801344 141 19 49 19 49 49 34 20 49 49 66 25 66 19 49 49 49 19 19 49 49 49 58 19 
139663758237696 141 49 79 49 84 62 49 71 67 80 73 89 50 89 49 89 67 188 58 89 49 108 49 89 
139663735779328 111 49 78 38 49 79 49 46 50 59 19 59 79 89 49 89 49 201 69 81 49 90 27 129 
139663718215680 141 39 49 69 49 69 19 19 49 49 49 85 89 86 49 49 19 19 49 49 59 49 19 78 
139663713320960 117 52 19 61 60 100 42 70 120 70 30 70 32 70 72 70 19 139 19 80 19 110 19 80 
139663695757312 111 39 19 39 19 21 19 19 19 19 26 19 19 19 19 19 25 19 19 45 19 19 19 19 
139663673298944 152 42 30 95 60 96 100 96 60 91 60 95 60 96 100 66 60 60 60 60 30 60 60 60 
139663650840576 141 85 19 85 49 73 49 104 89 85 49 49 49 19 49 49 19 49 49 49 49 49 19 49 
139663633276928 141 19 19 19 19 47 19 19 48 49 59 37 59 19 29 19 370 24 29 20 29 19 230 19 
139663628382208 111 55 19 55 19 19 19 19 19 85 19 19 19 19 19 19 19 19 19 19 19 19 19 19 
139663610818560 111 19 19 57 20 58 29 39 29 24 29 30 29 65 29 19 59 19 70 19 67 19 80 19 
139663588360192 341 77 89 67 89 108 89 78 89 77 89 63 89 49 111 55 90 49 99 49 99 49 129 55 
139663570796544 372 68 140 49 74 49 75 60 61 100 74 49 104 49 75 60 49 49 60 49 93 49 60 49 
139663565901824 151 49 59 89 59 61 59 19 72 19 51 19 90 49 99 49 99 49 299 19 69 19 19 49 
139663548338176 111 49 49 49 49 49 49 49 86 19 19 49 49 19 19 49 49 49 19 49 19 19 49 19 
139663525879808 158 49 67 49 55 89 49 49 71 49 49 49 49 49 49 49 49 49 19 49 49 49 49 49 
139664292339712 141 49 49 49 19 49 49 19 49 49 19 49 19 19 49 19 19 49 49 30 49 68 49 23 
139664287158272 141 49 19 19 19 49 19 49 19 20 19 49 19 19 19 19 19 19 49 19 57 19 19 19 
139664267870208 391 49 129 49 86 49 85 89 85 49 85 49 86 49 85 89 85 49 49 49 49 49 49 49 
139664250306560 358 49 90 49 120 49 90 49 90 79 109 82 102 91 151 130 259 130 120 130 138 100 49 130 
139664245411840 141 19 88 37 19 49 52 19 19 19 84 19 19 19 19 19 19 19 19 19 19 19 219 49 
139664227848192 141 49 79 19 19 19 27 41 19 20 85 59 91 59 50 59 42 128 19 59 19 78 19 78 
139664205389824 141 49 78 68 49 49 49 76 20 89 49 89 54 89 49 89 49 171 49 111 49 120 51 129 
139664187826176 117 69 19 69 19 269 49 19 19 19 19 19 19 26 19 19 19 225 29 20 49 49 49 49 
139664182931456 224 60 103 91 120 130 108 130 102 70 96 130 90 100 60 130 87 259 90 170 97 140 49 140 
139664165367808 133 39 19 39 49 19 19 52 46 19 19 19 37 19 19 26 19 219 19 22 19 49 49 19 
139664142909440 152 49 60 49 60 55 60 55 60 55 60 49 60 55 100 55 60 60 60 78 60 60 60 60 
139664120451072 111 26 19 19 19 22 59 19 29 19 29 19 19 48 19 19 19 128 19 19 19 19 19 28 
139664102887424 111 19 19 49 19 59 38 64 78 54 29 19 59 19 59 67 170 79 72 24 81 19 60 19 
139664097992704 111 19 19 19 19 19 20 19 19 19 19 21 19 19 19 19 19 330 19 19 19 19 19 19 
139664080429056 165 73 82 63 91 72 100 99 100 84 100 90 100 95 100 49 119 49 70 49 97 32 110 49 
139664057970688 111 19 59 43 29 61 59 49 29 19 29 49 29 19 229 19 60 19 39 19 39 49 69 19 
139664040407040 232 57 140 30 96 60 86 30 55 60 96 60 96 60 56 30 19 60 60 60 60 30 30 60 
139664035512320 351 31 59 19 29 49 29 43 59 24 59 19 30 19 69 19 39 19 69 19 39 219 19 19 
139664017948672 432 49 49 59 49 49 55 49 49 49 49 59 49 49 49 49 49 49 59 49 59 49 49 49 49 
139663995490304 141 19 49 19 49 59 49 49 49 49 49 49 59 49 89 49 49 49 88 49 54 49 79 49 49 
139663973031936 116 30 24 30 49 30 19 30 30 30 30 30 60 30 30 30 30 30 30 30 30 60 30 30 30 
139663955468288 141 49 49 46 50 59 37 59 20 89 49 59 49 89 44 89 49 60 19 99 19 99 44 69 49 
139663950573568 111 19 20 19 19 19 19 19 19 19 19 19 19 19 19 19 19 19 19 19 30 19 42 19 230 
139663933009920 111 59 79 29 19 59 49 59 49 59 49 59 49 89 49 99 49 168 49 69 57 129 49 69 49 
139663910551552 153 100 90 100 55 100 60 119 49 119 49 129 49 110 49 110 86 209 75 49 49 44 60 148 49 
139663892987904 141 96 49 66 19 67 19 65 79 96 19 66 19 19 49 78 19 19 49 49 49 49 49 55 19 
139663888093184 111 29 19 59 19 29 42 60 19 39 19 39 19 69 19 39 19 168 19 19 19 19 19 19 59 
139663870529536 131 30 30 30 30 30 30 19 230 30 30 38 30 30 30 30 30 30 30 30 30 39 30 30 30 
139663848071168 141 86 78 49 67 94 49 49 49 49 49 55 49 89 19 49 49 49 49 49 49 49 49 49 50 
139663825612800 121 34 19 49 19 19 19 19 19 19 19 19 19 19 19 19 219 19 19 19 20 49 59 49 59 
139663808049152 181 72 59 49 59 49 59 58 89 55 92 49 71 49 80 49 191 50 110 49 110 49 49 49 82 
139663803154432 322 30 60 60 60 60 60 60 60 30 60 60 60 59 79 60 90 60 87 61 100 90 100 60 100 
139663785590784 321 19 29 19 72 19 59 19 90 19 69 29 391 19 69 49 69 19 19 19 27 29 44 19 79 
139663763132416 181 49 78 49 89 49 59 54 69 54 69 49 99 49 39 49 49 49 49 49 65 49 61 86 55 
139663745568768 177 49 73 49 64 49 19 19 49 49 19 49 19 19 49 19 19 19 19 19 25 62 91 41 19 
139663740674048 214 49 101 49 110 49 110 80 140 49 110 49 49 49 62 49 74 169 74 77 105 60 98 60 193 
139663723110400 159 49 105 19 19 19 19 19 49 49 19 19 19 49 49 49 19 49 19 68 80 49 49 59 75 
139663700652032 122 30 30 30 230 30 30 30 30 30 30 30 30 30 39 30 30 30 30 30 30 40 30 40 230 
139663678193664 151 19 19 19 19 19 19 19 19 19 19 19 19 19 19 20 49 128 49 29 19 29 19 229 19 
139663660630016 164 70 60 119 30 119 97 99 49 140 49 140 60 140 67 60 60 55 60 85 60 60 60 49 60 
139663655735296 111 19 19 19 19 19 19 19 19 38 49 49 19 59 67 59 49 170 49 59 19 59 49 78 219 
139663638171648 150 92 19 101 25 80 25 110 19 110 19 110 19 110 49 69 78 19 79 19 49 55 19 32 19 
139663615713280 141 129 19 99 19 129 49 129 49 129 19 81 25 44 59 85 49 49 49 56 49 49 59 189 49 
139663598149632 111 19 19 30 19 30 19 19 19 30 219 30 19 30 19 30 330 30 22 30 31 30 40 242 40 
139663593254912 161 39 19 69 49 19 19 19 19 19 19 19 19 252 19 19 19 19 19 19 19 19 19 29 19 
139663575691264 141 49 49 49 49 49 19 19 49 58 19 49 32 19 41 19 20 19 59 19 59 20 59 42 29 
139663553232896 311 49 49 19 19 19 19 19 49 49 38 19 49 67 76 79 59 179 59 79 89 49 59 19 102 
139663530774528 152 60 60 60 60 60 60 60 60 60 61 60 70 60 70 60 70 101 70 60 70 60 89 84 70 
139663513210880 181 80 116 85 129 49 129 49 99 49 99 49 91 66 67 49 49 49 66 49 96 89 91 49 49 
139663508316160 141 49 62 49 71 90 80 60 89 60 89 60 89 90 89 65 59 159 89 49 119 86 99 49 110 
139664255201280 181 77 89 49 102 58 111 49 120 49 129 49 129 49 129 49 129 49 49 49 260 49 55 49 80 
139664232742912 321 19 48 19 59 19 56 19 69 19 39 19 39 19 69 19 26 19 19 25 19 19 43 19 91 
139664215179264 336 89 85 49 64 49 49 49 49 49 49 49 49 49 49 49 49 49 49 49 55 62 91 71 79 
139664210284544 214 60 131 60 140 60 140 91 140 60 110 60 72 60 114 60 60 60 96 60 97 60 125 60 174 
139664192720896 159 25 45 49 19 19 49 19 19 49 19 49 49 19 49 49 49 49 19 38 79 79 49 59 61 
139664170262528 162 30 30 60 30 60 60 60 30 30 30 60 60 30 60 49 30 178 42 59 102 100 30 40 30 
139664147804160 121 19 29 219 19 19 59 19 19 19 49 19 37 19 30 50 19 128 19 59 37 59 49 59 19 
139664130240512 111 59 26 78 19 78 55 58 19 129 49 129 49 99 19 49 49 19 49 59 49 36 49 52 56 
139664125345792 111 19 19 19 19 19 19 19 19 19 19 19 19 29 19 229 48 140 19 29 19 29 19 229 19 
139664107782144 111 40 219 71 19 50 19 50 19 80 19 50 19 80 19 19 19 19 30 19 30 19 30 19 19 
139664085323776 111 39 19 39 19 69 19 69 19 39 219 19 19 49 19 25 19 19 49 19 19 19 19 49 19 
139664067760128 122 19 19 30 19 30 19 30 19 30 19 30 19 30 19 30 160 30 52 31 61 60 70 19 70 
139664062865408 111 99 49 39 49 19 49 58 49 73 19 49 49 97 49 49 89 60 49 49 49 49 49 49 49 
139664045301760 111 19 19 29 19 29 19 19 19 19 19 19 19 19 19 19 20 330 59 31 59 62 59 91 59 
139664022843392 111 19 49 49 49 49 49 58 19 49 49 49 49 49 246 49 59 19 59 49 59 77 59 49 42 49 
139664000385024 322 30 30 30 30 30 30 67 82 31 31 30 40 30 70 102 40 130 40 30 40 96 59 32 70 30 
139663982821376 321 19 29 19 69 19 39 19 39 19 69 19 26 155 19 19 41 219 19 19 19 49 26 19 19 49 
139663977926656 111 59 32 19 19 272 50 30 59 60 59 60 59 31 59 66 59 206 59 49 29 19 39 19 50 49 
139663960363008 221 49 69 91 129 49 129 19 95 49 95 55 126 89 126 49 49 49 65 49 106 49 96 49 49 49 
139663937904640 172 49 110 19 49 49 49 60 74 30 75 60 19 62 104 60 74 60 49 19 36 19 60 49 60 19 
139663920340992 111 49 19 19 49 19 19 19 49 19 49 68 19 19 25 19 31 59 19 89 19 29 37 29 19 42 
139663915446272 221 49 49 49 49 49 54 49 49 86 73 49 49 49 49 49 52 49 49 49 49 49 49 49 49 49 
139663897882624 152 49 60 49 90 19 60 73 79 52 30 91 60 70 99 100 260 199 76 70 95 70 19 70 19 100 
139663875424256 121 19 19 19 19 19 19 19 19 29 19 29 31 29 31 29 22 128 31 29 19 29 19 30 19 39 
[...]
139664083017728 141 89 49 89 49 99 86 99 19 69 49 99 19 269 19 49 49 19 49 59 49 49 49 49 19 49 19 49 49 49 19 59 19 59 19 59 49 59 49 29 49 69 46 39 49 69 49 49 49 49 49 49 49 19 49 71 49 
139664100581376 111 19 19 19 20 19 19 19 28 19 19 19 19 19 23 19 29 318 29 24 29 19 29 24 29 19 29 26 39 19 39 19 19 19 19 19 20 19 19 19 54 19 19 19 19 19 19 220 205 29 19 29 19 29 20 29 24 19 
139664123039744 111 19 19 19 29 19 29 19 29 19 19 19 19 219 22 31 19 19 19 31 29 31 29 31 29 31 29 19 239 19 39 19 19 19 19 19 22 19 22 19 23 19 19 219 29 19 19 19 19 19 19 19 61 29 31 29 19 
139664145498112 141 49 30 19 60 49 60 49 30 19 30 49 30 19 30 59 43 30 82 30 61 103 70 60 40 30 100 62 89 49 99 19 19 30 22 19 60 19 63 49 30 49 60 19 30 49 60 19 60 49 49 49 90 60 19 70 84 
139664163061760 151 19 39 19 39 19 239 19 39 19 21 19 19 19 19 19 19 19 19 19 19 56 219 27 19 19 19 19 19 50 19 19 29 19 329 19 69 19 39 19 39 19 39 19 19 219 19 19 19 19 19 19 19 20 24 19 19 19 
139664167956480 111 19 19 19 19 19 19 19 19 19 22 19 219 19 220 19 19 19 19 19 19 61 19 19 220 19 29 50 29 19 29 219 19 19 19 19 66 19 19 19 59 19 29 219 19 19 20 49 19 19 49 19 19 19 19 19 329 
139664185520128 214 49 101 49 140 50 110 80 140 49 140 49 49 49 86 85 49 49 57 49 79 49 59 203 49 55 51 49 49 49 49 49 89 49 218 49 130 80 97 49 140 62 140 49 140 80 140 49 104 49 67 49 73 49 85 49 49 
139664207978496 192 36 119 60 92 30 131 60 140 60 140 66 140 60 140 140 30 30 60 66 70 55 60 154 30 86 60 60 60 60 60 30 70 213 100 60 83 19 122 60 131 60 140 31 110 60 140 60 110 60 60 60 55 70 96 60 85 
139664225542144 141 49 49 49 49 49 49 49 49 49 32 62 41 90 80 79 60 200 60 89 49 89 72 89 60 89 88 140 49 140 49 88 49 49 49 49 49 49 49 49 49 56 49 49 49 59 68 72 79 60 76 19 89 72 89 49 89 19 
139664230436864 321 79 59 19 29 49 48 19 59 49 86 73 69 19 69 99 19 69 19 99 19 43 19 19 49 19 49 66 19 19 19 67 59 49 59 19 59 19 59 79 48 19 51 19 120 49 99 19 99 19 99 19 69 19 219 19 65 
139664248000512 122 30 30 30 30 30 30 30 30 230 30 30 30 30 30 43 55 151 60 31 54 70 30 70 30 100 52 100 64 97 25 55 70 36 30 30 60 59 30 19 30 30 30 30 30 48 30 30 243 38 52 30 31 60 70 90 40 19 
139663505420288 60 70 60 
139664270458880 311 19 19 49 19 19 49 19 19 19 19 19 19 19 19 19 19 19 19 38 219 38 48 48 19 59 31 102 19 81 19 66 19 72 19 19 19 377 19 19 19 19 19 19 19 19 19 49 19 19 49 19 38 19 41 19 50 
139663993184256 111 49 19 19 19 19 49 19 19 19 19 49 49 19 19 49 19 19 19 19 19 19 19 49 19 19 19 19 20 19 69 19 39 49 69 49 19 19 49 49 19 49 49 49 49 19 49 19 34 19 19 19 19 49 58 19 19 
139664010747904 151 28 59 37 59 49 59 84 59 19 78 19 59 19 19 59 66 198 19 69 23 99 24 69 19 19 19 26 25 25 38 37 49 19 59 64 59 49 59 79 59 19 59 49 59 19 59 24 60 24 69 19 69 19 69 24 69 
139664033206272 130 43 48 49 59 79 59 58 59 366 59 84 72 49 19 78 19 188 19 99 49 99 49 99 19 99 19 19 19 225 19 19 32 22 41 79 50 401 59 25 59 43 59 79 59 114 59 19 78 19 89 19 86 44 99 219 99 
139664055664640 311 19 19 19 19 19 29 19 29 19 29 19 29 19 30 29 19 29 19 32 19 41 19 50 19 50 29 19 19 19 19 19 19 19 19 19 19 19 19 19 19 19 29 19 29 19 29 19 29 19 29 19 32 19 41 19 50 
139664073228288 311 19 25 19 19 19 19 23 19 19 19 19 19 19 19 19 19 19 19 19 20 19 19 19 28 19 19 29 19 29 19 19 19 19 19 19 19 19 19 19 19 19 25 19 19 19 19 28 19 24 19 19 19 19 19 19 19 19 
139664118145024 111 19 19 19 30 19 30 19 31 19 30 19 35 19 19 30 19 19 22 19 30 19 30 19 30 19 30 19 29 19 19 50 19 161 19 50 19 19 30 19 34 19 30 19 30 19 30 19 30 19 60 19 19 40 19 30 19 
139664135708672 111 76 49 59 37 29 19 59 19 89 19 59 49 29 29 49 30 60 39 49 69 19 39 20 39 49 19 49 19 19 19 19 19 19 454 20 19 29 19 29 19 29 191 59 24 29 219 59 19 59 49 39 19 39 49 39 19 19 
139664140603392 141 99 66 99 49 49 19 95 55 96 19 96 49 72 81 49 19 49 66 49 89 49 49 19 19 49 19 49 19 49 59 99 19 228 49 99 19 99 59 49 19 66 49 90 36 85 58 35 67 85 49 55 49 19 49 19 159 
139664158167040 160 71 132 80 124 89 120 89 120 89 60 89 132 89 89 58 119 49 122 49 131 49 140 49 140 49 50 49 49 89 49 49 89 49 158 68 119 79 61 76 120 89 121 59 120 59 88 59 49 113 54 92 49 71 85 110 49 
139664198189056 166 59 85 49 85 49 86 49 74 89 85 49 49 49 49 58 49 49 49 49 49 49 49 49 49 49 80 65 89 90 49 19 74 89 79 49 80 78 86 49 74 89 85 49 85 55 19 49 49 19 19 49 49 49 49 49 49 159 
139664203083776 111 19 49 49 49 19 48 49 49 49 19 46 50 59 89 61 170 49 59 49 59 49 102 91 81 50 129 19 99 69 49 19 49 19 19 49 49 49 19 49 49 68 49 71 50 80 79 89 79 89 19 89 50 89 49 89 49 
139664220647424 202 60 96 60 86 66 55 70 96 60 126 60 86 60 60 45 60 30 60 60 60 60 60 60 60 60 79 30 90 60 140 57 140 60 239 60 81 60 85 100 200 60 96 60 56 60 85 100 96 30 60 60 30 60 60 60 60 49 
139664243105792 191 62 49 49 88 49 49 19 96 49 67 49 49 89 89 49 49 49 49 49 49 79 49 49 49 49 49 49 49 49 69 19 129 49 228 19 129 76 99 49 195 19 67 55 49 89 80 19 68 49 67 49 75 49 49 49 19 
139664265564160 221 49 129 49 129 49 129 49 86 20 74 59 85 49 66 86 53 49 49 85 89 80 89 49 19 55 49 49 49 49 78 86 118 49 99 76 99 49 99 56 49 49 85 49 85 55 85 49 56 49 79 19 85 49 85 49 49 
139663510315008 49 86 19 
139664275353600 141 49 49 49 49 49 49 49 49 49 49 49 49 49 49 49 49 49 49 49 49 49 49 49 49 49 49 49 49 19 19 49 19 19 49 49 49 49 49 19 49 49 19 49 49 49 49 49 19 19 19 49 49 49 49 49 49 19 
139664005853184 141 19 49 49 19 19 49 49 49 19 66 19 49 49 19 19 68 52 49 19 89 49 59 19 89 19 51 19 90 29 55 49 19 19 49 49 49 49 19 19 49 49 79 49 49 49 49 19 19 38 49 49 19 49 81 29 37 
139664023416832 172 30 80 30 50 38 60 30 60 60 60 33 30 55 30 30 60 30 30 54 40 30 60 19 60 30 30 60 30 44 62 49 71 30 149 30 110 26 280 48 110 153 50 60 43 30 22 30 30 30 84 60 54 30 52 30 19 340 
139664028311552 141 23 19 19 29 19 19 19 49 19 19 19 19 19 19 19 19 19 19 19 19 19 20 19 229 19 29 19 29 19 19 29 29 19 19 19 26 19 19 19 19 19 19 19 19 19 19 19 19 19 19 19 19 19 42 20 30 
139664045875200 151 43 99 32 69 19 39 49 39 49 69 19 60 45 37 19 37 19 71 19 38 125 19 19 49 49 49 19 19 31 59 48 59 58 29 62 89 42 69 19 69 43 69 32 19 19 19 19 88 19 66 19 41 220 19 19 96 115 
139664068333568 121 19 29 19 30 19 39 19 39 19 39 19 39 39 19 39 19 19 19 19 19 19 29 19 19 19 19 28 19 19 29 19 29 40 29 19 29 19 29 19 39 19 39 19 39 19 39 19 39 19 19 19 19 29 19 19 19 
139664090791936 362 60 70 60 100 49 70 49 100 49 110 49 80 80 49 80 49 49 49 280 49 49 60 49 91 49 62 49 49 60 70 91 70 75 70 60 100 49 70 49 70 57 71 49 80 49 80 49 80 49 80 49 80 49 63 60 58 
139664108355584 311 19 19 49 19 19 19 29 19 19 49 19 19 19 19 49 19 119 31 29 49 29 61 29 31 29 19 59 19 211 19 22 19 19 19 19 19 19 19 29 19 29 19 29 19 19 19 19 19 19 19 19 229 19 29 31 59 141 
139664113250304 121 23 29 19 29 19 29 19 29 19 29 19 39 29 22 39 19 39 19 39 19 19 19 33 19 19 24 19 19 31 20 19 29 22 29 19 29 20 29 19 29 24 29 19 29 19 29 19 39 19 39 19 39 19 19 19 128 
139664130813952 111 30 19 30 19 30 19 230 19 30 19 30 19 19 30 19 19 19 19 22 19 31 242 40 19 40 19 59 19 19 219 19 19 19 19 19 19 30 19 30 19 260 19 30 19 30 19 30 19 30 19 60 22 19 31 30 40 
139664153272320 111 82 19 33 49 19 19 59 19 20 49 219 19 19 49 19 19 19 19 49 58 19 47 49 91 89 49 89 19 66 19 49 19 19 19 19 51 66 19 38 19 49 19 19 19 19 19 49 19 50 19 49 49 19 49 49 19 
139664170835968 111 262 25 71 49 80 19 80 49 80 19 50 19 19 19 19 19 219 19 19 19 19 19 49 19 19 29 19 49 59 19 29 49 53 21 32 49 71 19 80 49 80 19 50 19 80 19 49 49 19 29 19 49 49 19 25 19 129 
139664175730688 141 19 19 80 19 19 19 19 49 19 19 49 19 19 19 49 31 19 19 19 49 19 19 19 19 89 19 59 47 49 19 56 19 49 19 49 49 19 49 71 19 49 19 19 19 19 19 19 19 19 219 49 19 19 49 19 19 
139664193294336 182 70 60 89 49 70 60 70 96 80 63 110 58 60 110 99 140 60 84 60 82 60 60 60 84 60 60 60 60 70 60 70 60 270 60 70 60 89 60 100 60 71 60 110 60 140 91 80 60 80 60 72 60 120 60 84 100 19 
139664215752704 141 89 49 89 49 72 49 111 49 90 49 129 49 49 99 49 129 49 129 49 129 49 96 49 96 49 49 49 75 80 91 89 66 89 360 89 49 89 88 89 49 108 49 119 50 116 49 129 49 129 49 129 50 129 49 96 49 
139664238211072 141 89 49 89 19 29 49 29 61 59 57 59 19 55 60 49 69 49 69 85 69 49 69 49 49 49 49 49 49 68 49 68 78 49 49 59 49 89 49 59 61 89 49 59 49 59 19 90 49 69 49 99 49 69 49 69 49 
139664255774720 114 59 64 49 49 49 49 19 49 49 49 49 49 49 49 49 49 49 49 49 19 79 19 49 59 49 59 49 108 49 95 49 73 49 19 49 49 49 49 49 49 49 49 49 19 49 49 19 19 49 49 49 78 49 224 49 19 359 
139664260669440 152 91 90 100 49 100 90 100 60 100 60 100 49 49 100 76 211 71 100 49 110 75 140 49 140 100 74 60 104 49 60 49 60 79 55 90 57 100 108 100 60 100 60 100 49 100 90 100 49 122 49 101 49 140 49 140 190 
139664280535040 179 29 49 59 60 59 50 59 49 59 49 48 19 87 59 19 60 19 99 49 69 49 39 19 19 19 49 49 49 35 27 49 27 20 19 29 19 89 19 59 57 59 19 59 19 30 219 59 19 59 49 99 19 69 19 69 19 
139664285716480 132 86 40 30 40 53 40 30 40 30 41 30 240 61 30 67 230 80 30 50 30 50 30 30 30 60 30 30 60 30 30 30 30 30 40 30 40 30 240 54 40 31 40 30 40 30 40 30 240 30 80 40 50 30 50 30 30 
139663991169024 111 249 19 19 19 25 19 49 19 49 19 19 50 219 19 62 33 340 19 50 49 29 19 59 19 29 49 49 20 19 49 22 19 19 19 49 19 49 49 19 19 19 19 19 19 49 49 29 49 49 19 19 20 19 59 19 59 19 
139663574245376 221 49 49 129 50 129 49 89 73 59 99 59 49 59 31 89 49 158 66 89 68 89 49 59 49 59 49 59 19 89 49 56 49 99 19 69 75 69 50 39 49 40 49 49 50 99 86 129 49 99 49 19 49 96 37 49 19 
139669184528384 208 
139663996063744 181 29 19 59 26 29 19 229 43 72 19 29 48 55 59 75 69 49 69 49 39 31 39 53 49 49 19 19 19 62 19 19 76 50 178 29 36 59 43 59 65 89 54 29 19 48 49 89 19 86 19 269 30 69 19 69 19 19 
139664000958464 141 110 49 110 49 25 19 26 19 19 19 55 55 19 55 49 19 49 20 19 19 19 49 19 19 19 19 19 19 110 86 110 19 451 49 80 19 80 19 26 25 44 59 56 19 56 19 19 79 19 89 44 19 79 19 89 49 
139664018522112 111 49 49 29 49 29 19 29 49 29 19 29 29 49 59 19 51 19 30 19 69 19 39 19 19 219 49 19 20 19 19 19 50 19 431 19 49 19 37 29 19 29 36 29 19 29 54 42 19 51 19 60 19 69 19 69 19 21 
139664040980480 147 19 102 71 55 80 60 89 19 89 95 29 89 60 89 61 89 49 89 49 89 49 99 49 140 49 86 49 49 49 49 49 49 49 49 49 49 68 60 79 49 89 72 89 60 59 60 89 49 89 49 119 50 122 49 101 49 
139664063438848 122 30 60 60 30 79 58 30 61 60 100 100 70 60 40 30 70 189 70 60 70 60 89 49 110 19 140 49 60 60 60 60 60 60 60 60 60 30 60 73 60 60 102 91 90 70 60 100 78 100 30 70 125 100 60 119 49 
139664081002496 147 19 55 49 56 19 54 19 85 19 55 19 19 49 19 19 49 49 49 19 49 19 19 49 38 37 38 19 99 19 69 19 129 19 49 19 55 58 24 19 60 19 55 19 55 19 19 19 34 19 19 19 219 49 79 19 19 159 
139664085897216 111 19 19 19 49 19 19 19 19 19 49 19 19 20 19 249 140 53 29 29 29 50 29 31 39 49 39 19 19 19 50 19 49 19 19 19 19 49 19 49 19 19 28 19 19 19 19 19 19 29 19 29 19 29 37 29 164 
139664103460864 172 19 20 19 32 30 27 52 27 19 32 30 30 19 40 19 19 139 19 31 19 30 19 60 19 30 19 30 80 19 50 219 80 19 149 19 19 19 19 70 26 30 19 30 213 20 19 30 31 30 19 19 30 19 30 19 30 
139664125919232 331 19 39 19 39 19 37 19 19 20 19 19 19 19 19 19 19 19 19 19 19 19 19 19 19 20 19 19 221 19 30 19 39 19 39 19 39 19 39 19 19 19 33 19 19 19 19 29 19 20 33 19 33 19 19 19 19 
139664143482880 311 19 49 19 20 30 59 49 29 49 29 30 19 29 49 29 19 170 19 70 19 67 19 280 19 32 19 32 19 19 19 219 19 19 19 19 19 30 20 19 29 19 29 19 29 30 29 19 29 19 59 19 59 33 69 19 80 19 
139664148377600 131 19 39 219 69 19 69 19 19 19 49 29 19 19 22 49 19 19 29 19 49 19 19 19 19 219 19 19 29 19 29 19 229 49 29 19 239 19 39 49 39 19 39 19 19 19 19 19 24 19 19 59 219 19 19 49 19 
139664165941248 111 19 19 19 19 48 19 79 19 49 59 19 19 59 19 59 49 158 19 42 19 59 19 60 40 39 30 35 19 25 19 19 19 19 19 19 19 19 38 53 41 41 250 20 29 19 59 49 59 19 29 131 29 31 370 19 89 19 
139664188399616 111 19 19 49 49 58 62 19 71 49 50 19 73 59 61 59 19 358 49 59 19 29 24 59 19 269 49 39 19 47 49 49 49 19 19 19 49 19 19 49 49 19 19 19 19 19 46 20 89 19 29 19 29 19 29 49 42 
139664210857984 141 49 49 49 49 49 49 49 49 49 38 49 60 71 89 80 72 188 60 89 30 89 49 89 49 127 80 140 89 85 49 49 19 49 49 49 49 49 49 49 49 49 49 49 62 68 71 78 80 120 59 60 89 61 89 90 89 
139664228421632 141 129 79 99 49 67 49 49 67 73 49 66 66 49 35 71 80 188 49 49 49 49 49 49 19 49 49 49 56 89 49 69 49 99 19 129 49 49 49 19 89 96 55 96 49 71 49 49 86 96 49 118 49 49 19 49 49 19 
139664233316352 182 90 90 90 90 90 90 90 90 90 90 90 90 90 90 60 93 90 124 119 107 130 60 100 125 152 60 161 90 115 90 49 90 46 90 120 60 90 90 66 90 60 60 120 90 90 90 90 109 60 112 60 121 91 130 102 240 
139664250880000 117 99 19 99 72 39 19 99 49 49 19 71 49 49 19 49 49 49 49 58 19 19 52 49 19 49 49 19 19 29 19 29 49 69 19 99 19 69 19 69 19 99 49 19 19 19 49 19 19 55 19 56 49 55 19 19 49 
139663508299776 49 19 49 49 49 19 
139664273338368 167 99 74 110 44 110 49 110 33 19 19 31 140 19 63 30 75 30 73 30 104 100 79 30 60 49 30 19 30 100 19 83 63 203 19 71 49 110 19 80 144 110 49 110 49 140 19 74 19 50 36 31 60 19 19 44 49 
139664013627392 141 19 19 19 19 19 19 19 19 19 19 19 19 19 29 19 29 19 19 19 19 19 19 29 19 29 30 59 29 19 19 19 29 28 19 19 19 19 19 19 19 19 19 25 19 29 19 19 19 19 19 19 19 19 19 19 220 
139664036085760 152 125 60 63 60 75 60 49 60 60 60 60 60 60 60 60 60 60 60 60 60 60 60 70 108 70 60 73 60 90 60 101 60 60 78 85 60 60 60 49 60 60 60 60 60 90 60 60 60 66 60 90 60 99 60 60 79 
139664058544128 111 19 219 19 19 19 19 19 19 19 19 19 219 19 19 19 31 49 23 19 19 19 20 20 19 29 19 39 19 219 19 19 19 19 19 49 49 19 20 49 19 22 59 49 49 19 19 49 49 49 19 54 19 19 49 219 329 
139664076107776 212 70 19 100 60 70 62 130 62 110 19 19 110 49 110 49 110 49 49 49 53 82 49 60 49 60 49 91 90 70 60 100 90 100 360 100 102 100 95 100 52 100 49 100 49 110 232 280 80 80 49 49 49 49 60 78 49 
139664098566144 112 29 19 29 19 29 19 29 49 29 19 19 30 19 39 19 39 19 39 19 39 19 39 19 19 19 19 19 19 19 19 20 20 29 19 29 19 29 19 29 19 29 19 29 19 29 19 39 19 39 63 39 19 39 19 39 19 
139664116129792 111 19 60 19 263 19 91 49 60 49 60 60 49 90 19 60 19 180 49 58 60 102 87 60 70 65 100 19 19 90 19 90 49 19 49 19 70 19 60 49 65 49 60 19 60 19 60 19 60 19 65 79 28 49 48 59 94 
139664121024512 111 29 19 29 19 29 31 29 19 29 23 20 29 19 29 19 141 27 39 19 39 19 39 20 19 19 19 19 28 19 19 219 19 19 19 19 19 29 31 29 49 29 19 29 19 29 19 29 19 30 19 39 19 39 19 39 19 
139664161046528 311 49 19 19 19 59 49 19 19 49 19 49 49 19 49 49 19 19 49 19 19 19 49 49 29 31 29 49 19 49 49 19 19 19 49 19 73 59 19 19 49 49 19 49 249 49 19 19 19 49 19 19 49 49 19 19 19 
139664183504896 141 19 21 59 55 49 19 19 19 49 19 34 19 19 19 49 19 49 19 19 19 19 19 48 19 60 46 19 140 19 110 19 26 19 256 19 25 19 25 19 86 19 19 29 49 19 19 19 19 49 19 19 19 49 19 19 19 
139664201068544 181 109 89 49 59 91 108 80 111 49 120 120 86 129 49 129 76 228 49 129 49 49 49 74 89 96 49 49 68 91 78 90 89 49 89 49 89 91 89 49 102 49 111 49 120 49 129 49 129 49 129 49 129 49 49 49 71 
139664205963264 152 60 96 60 60 68 86 60 85 60 96 96 60 97 60 49 60 60 60 60 60 60 60 60 73 60 82 60 110 97 110 49 140 87 110 60 84 60 94 60 30 97 84 60 66 60 52 60 80 60 49 60 60 60 60 60 19 
139664223526912 181 49 89 91 59 49 89 54 89 49 108 108 49 108 49 118 49 398 86 129 49 129 71 189 49 85 49 49 49 49 68 49 79 49 89 91 89 49 89 49 89 49 89 86 108 85 111 49 120 49 129 49 129 49 129 49 129 
139664245985280 141 49 59 60 70 60 70 49 70 60 70 270 90 70 49 119 49 169 49 110 49 110 49 49 49 49 90 90 49 60 49 60 73 94 52 78 61 30 100 69 70 60 40 102 70 35 70 49 40 28 40 49 40 19 250 19 80 
139664268443648 141 49 68 49 79 49 89 91 89 49 89 89 55 89 79 89 49 102 90 111 49 120 67 129 49 129 49 49 49 49 49 49 49 49 49 49 68 49 68 91 78 49 89 49 89 49 89 91 89 49 102 99 111 49 120 49 129 
139664026296320 111 49 19 47 49 49 49 72 89 60 43 29 30 29 30 59 49 328 19 59 19 40 49 80 58 80 19 24 19 29 49 19 19 59 49 19 19 55 19 42 50 19 229 19 29 90 29 42 29 49 59 19 59 19 70 19 37 
139664031191040 122 19 239 19 39 19 39 30 39 19 19 39 19 19 19 22 23 19 19 19 219 19 19 19 19 19 29 19 29 19 29 19 29 27 29 219 39 19 39 19 39 19 39 19 39 19 19 19 19 19 19 19 19 219 19 19 
139664048754688 122 30 30 30 60 30 49 90 60 30 30 57 72 70 230 70 73 369 60 70 30 83 57 110 30 110 30 230 30 30 30 30 30 230 30 30 30 30 30 30 49 30 49 272 59 30 70 30 70 47 70 72 70 69 83 217 
139664071213056 111 20 19 24 19 19 19 19 19 19 19 19 19 20 19 29 20 128 19 29 19 29 19 29 38 39 62 22 19 19 19 22 19 19 19 19 19 19 19 19 19 19 19 19 19 19 19 19 29 19 29 19 29 19 29 19 
139664088776704 111 50 19 19 30 29 31 19 22 19 19 37 19 19 19 19 22 141 19 19 40 19 31 19 28 19 19 41 19 50 19 50 19 50 19 80 19 20 19 23 30 19 30 19 30 19 31 19 30 19 30 19 19 30 19 19 
139664093671424 111 19 19 29 19 59 19 19 19 19 19 19 219 19 19 41 172 20 31 29 19 29 19 29 19 59 19 19 19 19 23 19 19 19 19 29 19 59 19 19 19 285 19 19 19 19 32 19 41 31 20 19 59 19 59 19 
139664111235072 111 39 19 39 19 19 19 19 19 19 19 19 22 19 19 21 19 19 19 19 19 19 19 19 19 19 19 29 22 29 19 29 19 39 19 39 19 39 19 39 19 19 19 19 19 19 19 19 19 19 19 19 50 19 19 19 
139664133693440 141 99 19 69 49 99 49 69 19 54 49 19 49 19 49 37 85 49 49 19 49 49 49 49 49 19 437 59 49 59 19 51 19 60 49 69 49 39 25 69 49 39 49 49 19 49 49 49 49 19 19 49 19 19 49 49 
139664156151808 122 40 19 37 19 50 19 50 19 80 50 19 50 19 19 19 19 19 19 19 19 29 19 19 19 19 60 29 19 29 39 29 72 42 19 32 19 71 19 50 19 50 19 50 19 50 19 19 19 19 19 19 19 19 19 19 
139664173715456 111 19 19 19 19 19 19 38 79 241 41 62 50 43 59 79 59 19 59 58 59 91 86 19 99 19 25 19 19 19 48 19 19 19 19 19 19 19 37 19 219 62 22 41 80 50 79 59 61 59 79 259 80 59 19 59 
139664178610176 361 113 77 122 60 101 60 140 61 110 140 60 140 97 140 49 221 60 84 60 96 60 86 60 75 60 60 100 66 100 102 70 60 100 99 70 60 119 60 130 160 127 60 140 60 140 60 140 61 140 60 84 60 102 60 95 
139664196173824 311 49 49 49 49 49 49 49 49 49 49 49 68 60 68 60 78 89 89 72 89 60 92 58 131 49 105 99 49 49 85 49 49 49 49 49 88 49 49 49 49 49 49 49 49 68 65 49 61 80 49 89 60 89 60 59 
139664218632192 152 60 96 60 60 60 60 60 60 60 60 60 60 60 60 60 60 72 90 60 100 60 70 60 70 60 125 87 126 70 126 82 49 60 60 60 60 60 60 60 60 60 60 60 60 60 60 60 60 60 66 60 78 87 100 70 
139664236195840 161 19 69 19 269 19 49 49 49 49 19 55 59 49 19 24 19 19 89 85 36 55 49 55 49 49 89 56 89 49 89 49 60 19 228 19 129 49 99 19 39 49 99 49 55 49 49 49 19 56 49 49 55 82 21 49 
139664241090560 141 49 121 49 19 49 49 49 79 19 49 49 49 49 49 49 63 49 49 19 71 49 89 49 89 79 126 49 73 49 49 49 65 49 19 19 101 19 49 49 85 19 49 49 19 49 49 49 49 49 49 62 50 19 80 50 
STLBmisslatencies: 

DRAM Statistics
 CHANNEL 0
 RQ ROW_BUFFER_HIT:        681  ROW_BUFFER_MISS:     648248
 DBUS_CONGESTED:          4
 WQ ROW_BUFFER_HIT:     195950  ROW_BUFFER_MISS:     358350  FULL:          0

 AVG_CONGESTED_CYCLE: 6
 All warmup complete: 2
Channel 0 Bank busy for read cycles: 0
Channel 0 Bank busy for write cycles: 0
Channel 0
Rank 0
0banks busy for read cycles: 3021571
0banks busy for write cycles: 68353
1banks busy for read cycles: 21296781
1banks busy for write cycles: 5189053
2banks busy for read cycles: 14529140
2banks busy for write cycles: 7272673
3banks busy for read cycles: 11090473
3banks busy for write cycles: 10326265
4banks busy for read cycles: 3398813
4banks busy for write cycles: 8148042
5banks busy for read cycles: 9850
5banks busy for write cycles: 2883028
6banks busy for read cycles: 97
6banks busy for write cycles: 1111400
7banks busy for read cycles: 0
7banks busy for write cycles: 537507
8banks busy for read cycles: 0
8banks busy for write cycles: 433641

CPU 0 Branch Prediction Accuracy: 99.9685% MPKI: 0.04912 Average ROB Occupancy at Mispredict: 156.394
Branch types
NOT_BRANCH: 21105636 84.4225%
BRANCH_DIRECT_JUMP: 568310 2.27324%
BRANCH_INDIRECT: 0 0%
BRANCH_CONDITIONAL: 2217336 8.86934%
BRANCH_DIRECT_CALL: 554334 2.21734%
BRANCH_INDIRECT_CALL: 0 0%
BRANCH_RETURN: 554334 2.21734%
BRANCH_OTHER: 0 0%

DRAM PAGES: 1048576
Allocated PAGES: 23116
