
*** ChampSim Multicore Out-of-Order Simulator ***

Warmup Instructions: 25000000
Simulation Instructions: 25000000
Number of CPUs: 1
LLC sets: 2048
LLC ways: 16
Off-chip DRAM Size: 4096 MB Channels: 1 Width: 64-bit Data Rate: 6400 MT/s
CPU 0 runs ./traces/trace1.champsimtrace.xz
.xz
CPU 0 Bimodal branch predictor
BTB has LRU replacement policy
ITLB has LRU replacement policy
DTLB has LRU replacement policy
STLB has SRRIP replacement policy
L1I has LRU replacement policy
L1D has LRU replacement policy
L2C has LRU replacement policy
LLC has LRU replacement policy
Heartbeat CPU 0 instructions: 10000003 cycles: 2831324 heartbeat IPC: 3.53192 cumulative IPC: 3.53192 (Simulation time: 0 hr 0 min 10 sec) 
Heartbeat CPU 0 instructions: 20000000 cycles: 5652925 heartbeat IPC: 3.54409 cumulative IPC: 3.53799 (Simulation time: 0 hr 0 min 20 sec) 

Warmup complete CPU 0 instructions: 25000004 cycles: 7067951 (Simulation time: 0 hr 0 min 25 sec) 

Heartbeat CPU 0 instructions: 30000002 cycles: 24178044 heartbeat IPC: 0.539808 cumulative IPC: 0.292225 (Simulation time: 0 hr 0 min 37 sec) 
Heartbeat CPU 0 instructions: 40000001 cycles: 60849937 heartbeat IPC: 0.272688 cumulative IPC: 0.278904 (Simulation time: 0 hr 1 min 1 sec) 
Heartbeat CPU 0 instructions: 50000003 cycles: 96384636 heartbeat IPC: 0.281415 cumulative IPC: 0.279903 (Simulation time: 0 hr 1 min 26 sec) 
Finished CPU 0 instructions: 25000003 cycles: 89316686 cumulative IPC: 0.279903 (Simulation time: 0 hr 1 min 26 sec) 

ChampSim completed all CPUs

Region of Interest Statistics

CPU 0 cumulative IPC: 0.279903 instructions: 25000003 cycles: 89316686
ITLB TOTAL     ACCESS:    4442865  HIT:    4442865  MISS:          0  HIT %:        100  MISS %:          0   MPKI: 0
ITLB LOAD TRANSLATION ACCESS:    4442865  HIT:    4442865  MISS:          0  HIT %:        100  MISS %:          0   MPKI: 0
ITLB PREFETCH  REQUESTED:          0  ISSUED:          0  USEFUL:          0  USELESS:          0
ITLB USEFUL LOAD PREFETCHES:          0 PREFETCH ISSUED TO LOWER LEVEL:          0  ACCURACY: -nan
ITLB TIMELY PREFETCHES:          0 LATE PREFETCHES: 0 DROPPED PREFETCHES: 0
ITLB PREFETCHES SAME FILL-ORIGIN LEVEL: 0 DIFFERENT FILL-ORIGIN LEVEL: 0
ITLB AVERAGE MISS LATENCY: -nan cycles
ITLB RQ	ACCESS:    4796030	FORWARD:          0	MERGED:     353166	TO_CACHE:    4442864

DTLB TOTAL     ACCESS:    3721254  HIT:    3058354  MISS:     662900  HIT %:    82.1861  MISS %:    17.8139   MPKI: 26.516
DTLB LOAD TRANSLATION ACCESS:    3721254  HIT:    3058354  MISS:     662900  HIT %:    82.1861  MISS %:    17.8139   MPKI: 26.516
DTLB PREFETCH  REQUESTED:          0  ISSUED:          0  USEFUL:          0  USELESS:          0
DTLB USEFUL LOAD PREFETCHES:          0 PREFETCH ISSUED TO LOWER LEVEL:          0  ACCURACY: -nan
DTLB TIMELY PREFETCHES:          0 LATE PREFETCHES: 0 DROPPED PREFETCHES: 0
DTLB PREFETCHES SAME FILL-ORIGIN LEVEL: 0 DIFFERENT FILL-ORIGIN LEVEL: 0
DTLB AVERAGE MISS LATENCY: 55.9603 cycles
DTLB RQ	ACCESS:    4320413	FORWARD:          0	MERGED:     591320	TO_CACHE:    3729093

STLB TOTAL     ACCESS:     662899  HIT:     102419  MISS:     560480  HIT %:    15.4502  MISS %:    84.5498   MPKI: 22.4192
STLB LOAD TRANSLATION ACCESS:     662899  HIT:     102419  MISS:     560480  HIT %:    15.4502  MISS %:    84.5498   MPKI: 22.4192
STLB PREFETCH  REQUESTED:          0  ISSUED:          0  USEFUL:          0  USELESS:          0
STLB USEFUL LOAD PREFETCHES:          0 PREFETCH ISSUED TO LOWER LEVEL:          0  ACCURACY: -nan
STLB TIMELY PREFETCHES:          0 LATE PREFETCHES: 0 DROPPED PREFETCHES: 0
STLB PREFETCHES SAME FILL-ORIGIN LEVEL: 0 DIFFERENT FILL-ORIGIN LEVEL: 0
STLB AVERAGE MISS LATENCY: 55.4032 cycles
STLB RQ	ACCESS:     662901	FORWARD:          0	MERGED:          0	TO_CACHE:     662901

STLB Hit, L1D data hit: 0
STLB Hit, L2C data hit: 0
STLB Hit, LLC data hit: 0
STLB Hit, LLC data miss: 0
STLB STLB hints to L2: 0
L1D TOTAL     ACCESS:    4300044  HIT:    3094799  MISS:    1205245  HIT %:    71.9713  MISS %:    28.0287   MPKI: 48.2098
L1D LOAD      ACCESS:    3191380  HIT:    2055499  MISS:    1135881  HIT %:    64.4078  MISS %:    35.5922   MPKI: 45.4352
L1D RFO       ACCESS:    1108664  HIT:    1039300  MISS:      69364  HIT %:    93.7435  MISS %:    6.25654   MPKI: 2.77456
L1D PREFETCH  REQUESTED:          0  ISSUED:          0  USEFUL:          0  USELESS:          0
L1D USEFUL LOAD PREFETCHES:          0 PREFETCH ISSUED TO LOWER LEVEL:          0  ACCURACY: -nan
L1D TIMELY PREFETCHES:          0 LATE PREFETCHES: 0 DROPPED PREFETCHES: 0
L1D PREFETCHES SAME FILL-ORIGIN LEVEL: 0 DIFFERENT FILL-ORIGIN LEVEL: 0
L1D AVERAGE MISS LATENCY: 124.511 cycles
L1D RQ	ACCESS:    6161483	FORWARD:          0	MERGED:    2885263	TO_CACHE:    3211747
L1D WQ	ACCESS:    1108674	FORWARD:      64473	MERGED:          8	TO_CACHE:    1108666

L1D UNIQUE REGIONS ACCESSED: 0
L1D REGIONS CONFLICTS: 0
L1D Cross Page Prefetch Requests: 0
L1D Same Page Prefetch Requests: 0
L1D ROI Sum of L1D PQ occupancy: 0
L1D PREFETCHES PUSHED FROM L2C: 0
L1I TOTAL     ACCESS:    4796030  HIT:    4796030  MISS:          0  HIT %:        100  MISS %:          0   MPKI: 0
L1I LOAD      ACCESS:    4796030  HIT:    4796030  MISS:          0  HIT %:        100  MISS %:          0   MPKI: 0
L1I PREFETCH  REQUESTED:          0  ISSUED:          0  USEFUL:          0  USELESS:          0
L1I USEFUL LOAD PREFETCHES:          0 PREFETCH ISSUED TO LOWER LEVEL:          0  ACCURACY: -nan
L1I TIMELY PREFETCHES:          0 LATE PREFETCHES: 0 DROPPED PREFETCHES: 0
L1I PREFETCHES SAME FILL-ORIGIN LEVEL: 0 DIFFERENT FILL-ORIGIN LEVEL: 0
L1I AVERAGE MISS LATENCY: -nan cycles
L1I RQ	ACCESS:    7115736	FORWARD:          0	MERGED:    2319706	TO_CACHE:    4796030

BTB TOTAL     ACCESS:    3283963  HIT:    3283955  MISS:          8  HIT %:    99.9998  MISS %: 0.000243608   MPKI: 0.00032
BTB BRANCH_DIRECT_JUMP	ACCESS:     568310  HIT:     568308  MISS:          2
BTB BRANCH_INDIRECT	ACCESS:          0  HIT:          0  MISS:          0
BTB BRANCH_CONDITIONAL	ACCESS:    1606985  HIT:    1606981  MISS:          4
BTB BRANCH_DIRECT_CALL	ACCESS:     554334  HIT:     554333  MISS:          1
BTB BRANCH_INDIRECT_CALL	ACCESS:          0  HIT:          0  MISS:          0
BTB BRANCH_RETURN	ACCESS:     554334  HIT:     554333  MISS:          1
BTB BRANCH_OTHER ACCESS:          0  HIT:          0  MISS:          0

L2C TOTAL     ACCESS:    2396807  HIT:    1385411  MISS:    1011396  HIT %:    57.8024  MISS %:    42.1976   MPKI: 40.4558
L2C LOAD      ACCESS:    1135881  HIT:     420018  MISS:     715863  HIT %:    36.9773  MISS %:    63.0227   MPKI: 28.6345
L2C DATA LOAD MPKI: 28.6345
L2C INSTRUCTION LOAD MPKI: 0
L2C RFO       ACCESS:      69364  HIT:      42749  MISS:      26615  HIT %:      61.63  MISS %:      38.37   MPKI: 1.0646
L2C WRITEBACK ACCESS:     554349  HIT:     554349  MISS:          0  HIT %:        100  MISS %:          0   MPKI: 0
L2C LOAD TRANSLATION ACCESS:     637213  HIT:     368295  MISS:     268918  HIT %:    57.7978  MISS %:    42.2022   MPKI: 10.7567
L2C PREFETCH  REQUESTED:          0  ISSUED:          0  USEFUL:          0  USELESS:          0
L2C USEFUL LOAD PREFETCHES:          0 PREFETCH ISSUED TO LOWER LEVEL:          0  ACCURACY: -nan
L2C TIMELY PREFETCHES:          0 LATE PREFETCHES: 0 DROPPED PREFETCHES: 0
L2C PREFETCHES SAME FILL-ORIGIN LEVEL: 0 DIFFERENT FILL-ORIGIN LEVEL: 0
L2C AVERAGE MISS LATENCY: 139.434 cycles
L2C RQ	ACCESS:    1842459	FORWARD:          0	MERGED:          0	TO_CACHE:    1842459
L2C WQ	ACCESS:     554349	FORWARD:          0	MERGED:          0	TO_CACHE:     554349

L2C Instructions Evicting Data 0
L2C Translations Evicting Data 150869
L2C Data Evicting Data 591519
L2C Instructions Evicting Instructions 0
L2C Translations Evicting Instructions 0
L2C Data Evicting Instructions 0
L2C Instructions Evicting Translations 0
L2C Translations Evicting Translations 118049
L2C Data Evicting Translations 150959
L2C Dense regions hint from L2: 0
PSCL5 TOTAL     ACCESS:     560481  HIT:     560481  MISS:          0  HIT %:        100  MISS %:          0   MPKI: 0
PSCL5 LOAD TRANSLATION ACCESS:     560481  HIT:     560481  MISS:          0  HIT %:        100  MISS %:          0   MPKI: 0
PSCL5 PREFETCH  REQUESTED:          0  ISSUED:          0  USEFUL:          0  USELESS:          0
PSCL5 USEFUL LOAD PREFETCHES:          0 PREFETCH ISSUED TO LOWER LEVEL:          0  ACCURACY: -nan
PSCL5 TIMELY PREFETCHES:          0 LATE PREFETCHES: 0 DROPPED PREFETCHES: 0
PSCL5 PREFETCHES SAME FILL-ORIGIN LEVEL: 0 DIFFERENT FILL-ORIGIN LEVEL: 0

PSCL4 TOTAL     ACCESS:     560481  HIT:     560481  MISS:          0  HIT %:        100  MISS %:          0   MPKI: 0
PSCL4 LOAD TRANSLATION ACCESS:     560481  HIT:     560481  MISS:          0  HIT %:        100  MISS %:          0   MPKI: 0
PSCL4 PREFETCH  REQUESTED:          0  ISSUED:          0  USEFUL:          0  USELESS:          0
PSCL4 USEFUL LOAD PREFETCHES:          0 PREFETCH ISSUED TO LOWER LEVEL:          0  ACCURACY: -nan
PSCL4 TIMELY PREFETCHES:          0 LATE PREFETCHES: 0 DROPPED PREFETCHES: 0
PSCL4 PREFETCHES SAME FILL-ORIGIN LEVEL: 0 DIFFERENT FILL-ORIGIN LEVEL: 0

PSCL3 TOTAL     ACCESS:     560481  HIT:     560481  MISS:          0  HIT %:        100  MISS %:          0   MPKI: 0
PSCL3 LOAD TRANSLATION ACCESS:     560481  HIT:     560481  MISS:          0  HIT %:        100  MISS %:          0   MPKI: 0
PSCL3 PREFETCH  REQUESTED:          0  ISSUED:          0  USEFUL:          0  USELESS:          0
PSCL3 USEFUL LOAD PREFETCHES:          0 PREFETCH ISSUED TO LOWER LEVEL:          0  ACCURACY: -nan
PSCL3 TIMELY PREFETCHES:          0 LATE PREFETCHES: 0 DROPPED PREFETCHES: 0
PSCL3 PREFETCHES SAME FILL-ORIGIN LEVEL: 0 DIFFERENT FILL-ORIGIN LEVEL: 0

PSCL2 TOTAL     ACCESS:     560481  HIT:     483749  MISS:      76732  HIT %:    86.3096  MISS %:    13.6904   MPKI: 3.06928
PSCL2 LOAD TRANSLATION ACCESS:     560481  HIT:     483749  MISS:      76732  HIT %:    86.3096  MISS %:    13.6904   MPKI: 3.06928
PSCL2 PREFETCH  REQUESTED:          0  ISSUED:          0  USEFUL:          0  USELESS:          0
PSCL2 USEFUL LOAD PREFETCHES:          0 PREFETCH ISSUED TO LOWER LEVEL:          0  ACCURACY: -nan
PSCL2 TIMELY PREFETCHES:          0 LATE PREFETCHES: 0 DROPPED PREFETCHES: 0
PSCL2 PREFETCHES SAME FILL-ORIGIN LEVEL: 0 DIFFERENT FILL-ORIGIN LEVEL: 0

LLC TOTAL     ACCESS:    1566149  HIT:     917220  MISS:     648929  HIT %:    58.5653  MISS %:    41.4347   MPKI: 25.9572
LLC LOAD      ACCESS:     715863  HIT:      74420  MISS:     641443  HIT %:    10.3958  MISS %:    89.6042   MPKI: 25.6577
LLC RFO       ACCESS:      26615  HIT:      26611  MISS:          4  HIT %:     99.985  MISS %:  0.0150291   MPKI: 0.00016
LLC WRITEBACK ACCESS:     554753  HIT:     554753  MISS:          0  HIT %:        100  MISS %:          0   MPKI: 0
LLC LOAD TRANSLATION ACCESS:     268918  HIT:     261436  MISS:       7482  HIT %:    97.2177  MISS %:    2.78226   MPKI: 0.29928
LLC PREFETCH  REQUESTED:          0  ISSUED:          0  USEFUL:          0  USELESS:          0
LLC USEFUL LOAD PREFETCHES:          0 PREFETCH ISSUED TO LOWER LEVEL:          0  ACCURACY: -nan
LLC TIMELY PREFETCHES:          0 LATE PREFETCHES: 0 DROPPED PREFETCHES: 0
LLC PREFETCHES SAME FILL-ORIGIN LEVEL: 0 DIFFERENT FILL-ORIGIN LEVEL: 0
LLC AVERAGE MISS LATENCY: 170.368 cycles
LLC RQ	ACCESS:    1011397	FORWARD:          0	MERGED:          0	TO_CACHE:    1011397
LLC WQ	ACCESS:     554753	FORWARD:          0	MERGED:          0	TO_CACHE:     554753

LLC Dense regions hint to LLC: 0

RAW hits: 489049
Loads Generated: 6650535
Loads sent to L1D: 6161483
Stores Generated: 1108672
Stores sent to L1D: 1108674
Major fault: 0 Minor fault: 23116
Allocated PAGES: 23116
Number of unique pages in STLB: 22722
34097663866 111 
34097659578 122 
34097654095 141 
34097649807 141 
34097648612 171 
34097644324 141 
34097638841 141 
34097633358 162 
34097629070 121 
34097627875 111 
34097623587 132 
34097618104 351 
34097613816 311 
34097612621 121 
34097608333 173 
34097602850 181 
34097597367 111 
34097593079 171 
34097591884 152 
34097587596 136 
34097582113 122 
34097577825 111 
34097576630 141 
34097572342 141 
34097566859 141 
34097561376 311 
34097557088 362 
34097555893 311 
34097551605 221 
34097546122 191 
34097541834 141 
34097540639 202 
34097536351 141 
34097717501 141 
34097712018 141 
34097707730 152 
34097706535 152 
34097702247 111 
34097696764 134 
34097692476 111 
34097691281 111 
34097686993 111 
34097681510 111 
34097676027 141 
34097671739 222 
34097670544 311 
34097666256 524 
34097660773 161 19 
34097656485 181 49 
34097655290 161 19 
34097651002 120 19 
34097645519 111 49 
34097640036 122 19 
34097635748 141 99 
34097634553 146 50 
34097630265 111 30 
34097624782 111 21 
34097620494 122 19 
34097619299 141 85 
34097615011 111 49 
34097609528 333 121 
34097604045 138 67 
34097599757 111 19 
34097598562 132 19 
34097594274 249 49 
34097588791 218 30 
34097584503 111 19 
34097583308 111 19 
34097579020 122 30 
34097573537 151 29 
34097568054 142 89 
34097563766 111 19 
34097562571 146 102 
34097558283 111 19 
34097552800 311 66 
34097548512 351 91 
34097547317 152 30 
34097543029 181 49 
34097537546 162 30 
34097718696 311 49 
34097714408 311 49 
34097713213 222 90 
34097708925 166 49 
34097703442 218 77 
34097699154 141 38 
34097697959 111 29 
34097693671 141 19 
34097688188 331 40 
34097682705 123 29 
34097678417 141 49 
34097677222 146 29 
34097672934 111 19 
34097667451 111 19 
34097663163 121 30 29 
34097661968 322 30 30 
34097657680 351 49 59 
34097652197 121 19 29 
34097646714 211 19 119 
34097642426 157 24 63 
34097641231 182 19 69 
34097636943 141 49 49 
34097631460 141 49 49 
34097627172 152 70 114 
34097625977 111 19 219 
34097621689 164 59 49 
34097616206 111 60 19 
34097610723 111 99 49 
34097606435 111 49 19 
34097605240 351 140 49 
34097600952 311 19 19 
34097595469 141 60 19 
34097591181 170 49 89 
34097589986 111 59 19 
34097585698 161 30 80 
34097580215 142 19 50 
34097574732 221 56 129 
34097570444 152 49 30 
34097569249 111 19 31 
34097564961 111 19 37 
34097559478 150 19 19 
34097555190 111 69 19 
34097553995 141 52 30 
34097549707 141 99 55 
34097544224 322 49 60 
34097538741 141 104 74 
34097721086 141 49 49 
34097719891 172 140 49 
34097715603 141 49 49 
34097710120 322 60 60 
34097705832 370 19 119 
34097704637 141 19 49 
34097700349 181 49 129 
34097694866 202 49 110 
34097689383 161 49 39 
34097685095 121 19 22 
34097683900 111 19 19 
34097679612 141 19 19 
34097674129 121 19 19 
34097669841 112 50 219 
34097668646 177 30 30 
34097664358 141 99 49 
34097658875 111 19 19 25 
34097653392 351 203 19 19 
34097649104 311 19 19 19 
34097647909 141 55 89 55 
34097643621 195 108 112 87 
34097638138 171 49 89 88 
34097633850 232 87 140 60 
34097632655 181 49 89 49 
34097628367 111 19 49 19 
34097622884 111 19 41 49 
34097617401 117 49 85 49 
34097613113 141 49 49 49 
34097611918 111 19 26 19 
34097607630 171 89 49 89 
34097602147 123 70 60 40 
34097597859 147 96 89 96 
34097596664 341 89 49 102 
34097592376 322 125 60 84 
34097586893 111 27 19 19 
34097581410 111 19 19 19 
34097577122 181 90 89 130 
34097575927 141 49 19 49 
34097571639 181 55 59 49 
34097566156 151 19 78 19 
34097561868 166 49 85 49 
34097560673 132 19 41 19 
34097556385 111 19 45 19 
34097550902 122 30 60 60 
34097545419 141 49 49 49 
34097541131 164 100 30 70 
34097539936 311 19 19 49 
34097535648 311 122 49 131 
34097728044 122 30 30 30 
34097716798 152 40 230 70 
34097712510 111 66 19 43 
34097711315 141 89 49 102 
34097707027 152 65 60 96 
34097701544 311 55 47 19 
34097696061 111 19 19 19 
34097691773 192 108 70 90 
34097690578 141 19 19 19 
34097686290 121 19 29 20 
34097680807 121 19 29 19 
34097676519 111 19 49 19 
34097675324 154 30 101 60 
34097671036 141 55 49 49 
34097665553 152 60 60 60 
34097660070 111 19 19 19 19 
34097655782 111 59 49 59 19 
34097654587 111 49 19 19 19 
34097650299 111 62 19 71 19 
34097644816 337 69 50 99 19 
34097640528 322 22 19 40 19 
34097639333 163 129 49 129 86 
34097635045 111 58 49 49 19 
34097629562 141 49 49 49 19 
34097624079 122 35 30 30 30 
34097619791 211 44 86 49 99 
34097618596 111 19 19 19 19 
34097614308 191 49 99 49 99 
34097608825 232 49 140 49 49 
34097604537 111 49 49 49 76 
34097603342 191 49 80 49 79 
34097599054 122 49 60 19 30 
34097593571 141 49 49 49 49 
34097588088 350 49 58 68 20 
34097583800 311 80 49 80 49 
34097582605 122 31 30 40 30 
34097578317 141 19 19 19 29 
34097572834 111 31 19 81 41 
34097568546 111 24 49 49 49 
34097567351 158 49 19 57 49 
34097563063 141 49 68 49 71 
34097557580 144 90 91 101 100 
34097552097 168 62 89 79 89 
34097547809 122 30 60 60 55 
34097546614 181 67 59 67 89 
34097542326 177 49 73 49 85 
34097536843 177 49 86 49 84 
34097719188 141 49 49 49 49 
34097717993 221 49 67 49 86 
34097713705 122 30 30 30 30 
34097708222 141 49 49 49 49 
34097702739 141 49 49 68 67 
34097698451 123 80 19 110 219 
34097697256 311 20 49 29 19 
34097692968 311 19 49 19 19 
34097687485 111 19 19 52 219 
34097683197 111 29 19 219 19 
34097682002 155 19 19 39 30 
34097677714 111 19 19 219 19 
34097672231 152 60 61 30 70 
34097666748 111 60 59 60 59 
34097662460 111 19 55 49 96 19 
34097661265 121 48 29 217 59 19 
34097656977 125 19 73 19 19 19 
34097651494 141 19 19 20 49 49 
34097647206 122 79 65 90 49 70 
34097646011 188 49 66 89 49 49 
34097641723 188 48 61 59 31 89 
34097636240 328 59 36 29 31 29 
34097630757 122 70 30 70 30 89 
34097626469 111 19 19 19 19 19 
34097625274 127 89 49 232 19 41 
34097620986 111 26 55 19 49 55 
34097615503 141 60 49 19 19 19 
34097611215 151 79 29 19 59 80 
34097610020 111 19 19 19 49 19 
34097605732 132 60 40 49 70 19 
34097600249 151 49 59 79 78 76 
34097594766 121 19 29 19 29 19 
34097590478 111 49 25 19 55 19 
34097589283 193 30 110 36 110 19 
34097584995 111 19 19 19 19 19 
34097579512 321 49 19 19 25 19 
34097575224 311 89 49 89 49 108 
34097574029 141 49 49 49 49 49 
34097569741 183 29 19 29 19 60 
34097564258 141 71 49 140 50 140 
34097558775 111 99 19 99 19 69 
34097554487 122 19 30 40 30 30 
34097553292 142 39 49 99 49 24 
34097549004 141 19 19 19 19 19 
34097543521 141 49 49 49 49 49 
34097539233 151 49 70 19 110 26 
34097538038 141 49 49 49 62 91 
34097720383 192 118 100 90 100 60 
34097714900 151 19 59 61 48 49 
34097709417 140 49 78 219 88 19 
34097705129 144 49 85 49 85 49 
34097703934 212 96 129 49 129 92 
34097699646 141 49 49 49 49 49 
34097694163 111 19 49 49 20 49 
34097689875 142 59 261 59 19 108 
34097688680 352 49 60 49 30 19 
34097684392 323 29 19 29 43 30 
34097678909 122 101 30 110 25 110 
34097673426 111 50 19 50 19 50 
34097669138 152 30 60 60 60 60 
34097667943 166 129 19 99 49 31 
34097663655 111 29 19 29 19 29 19 
34097658172 311 19 19 50 19 19 49 
34097653884 132 19 40 19 50 19 50 
34097652689 111 19 19 19 19 19 19 
34097648401 150 19 39 19 69 19 39 
34097642918 131 44 69 19 39 19 39 
34097637435 172 66 110 30 56 69 30 
34097633147 141 49 49 49 19 49 49 
34097631952 311 49 86 49 85 49 86 
34097627664 322 30 30 30 30 30 30 
34097622181 121 19 29 19 29 19 29 
34097617893 131 69 19 69 19 69 64 
34097616698 159 71 49 50 79 59 85 
34097612410 111 80 19 80 49 19 60 
34097606927 141 61 49 84 49 80 49 
34097601444 151 49 49 49 49 49 49 
34097597156 141 49 49 49 68 49 49 
34097595961 152 60 100 60 60 60 60 
34097591673 154 91 71 54 80 49 89 
34097586190 122 30 70 86 100 60 70 
34097581902 131 19 69 19 19 19 26 
34097580707 121 30 29 19 229 19 29 
34097576419 178 49 85 89 96 141 96 
34097570936 336 49 75 60 61 40 74 
34097565453 112 19 55 49 56 49 19 
34097561165 152 60 60 57 60 70 372 
34097559970 111 19 19 19 19 19 19 
34097555682 141 59 49 59 61 89 49 
34097550199 154 259 49 59 19 59 49 
34097545911 111 26 19 55 29 45 19 
34097544716 170 70 30 70 49 70 19 
34097540428 141 54 19 55 89 55 59 
34097721578 141 61 49 84 49 85 89 
34097716095 121 66 19 19 49 265 37 
34097711807 111 19 19 49 68 49 68 
34097710612 152 91 100 121 60 97 60 
34097706324 154 77 71 49 80 49 89 
34097700841 171 49 89 61 59 49 59 
34097696553 161 49 69 19 68 49 19 
34097695358 132 219 40 19 240 42 40 
34097691070 148 49 49 49 96 49 296 
34097685587 111 30 19 19 19 60 19 
34097680104 311 19 19 19 19 19 19 
34097675816 322 30 60 57 60 70 60 
34097674621 111 19 19 19 19 19 19 
34097670333 123 29 30 29 230 59 30 
34097664850 129 59 19 29 19 89 67 
34097660562 121 19 59 19 19 45 59 34 
34097659367 141 59 49 59 49 59 19 60 
34097655079 112 49 19 19 59 49 19 19 
34097649596 111 25 19 19 19 25 19 19 
34097644113 132 19 19 19 19 30 19 230 
34097639825 121 19 29 219 89 19 29 19 
34097638630 141 49 49 49 49 49 49 49 
34097634342 192 77 100 60 70 99 122 60 
34097628859 151 19 29 19 40 19 37 49 
34097624571 111 19 19 19 19 19 19 19 
34097623376 465 49 60 49 39 19 99 80 
34097619088 311 19 19 19 19 19 19 19 
34097613605 111 19 19 19 19 49 49 49 
34097608122 141 49 49 49 49 49 49 49 
34097603834 141 89 91 59 19 59 19 88 
34097602639 122 19 30 219 60 49 60 49 
34097598351 129 51 49 60 19 69 49 129 
34097592868 122 140 60 80 49 80 57 80 
34097588580 141 64 49 49 19 19 49 49 
34097587385 141 50 19 50 19 19 49 49 
34097583097 111 19 19 19 19 19 19 19 
34097577614 111 19 19 28 19 19 219 19 
34097572131 141 49 49 49 49 49 68 80 
34097567843 222 49 127 19 140 19 110 49 
34097566648 311 28 19 19 19 20 220 247 
34097562360 361 19 129 19 99 19 129 49 
34097556877 161 19 39 219 19 19 19 49 
34097552589 111 19 49 19 49 19 49 19 
34097551394 202 60 67 60 60 30 125 60 
34097547106 142 49 49 49 19 19 49 62 
34097541623 111 19 19 19 19 38 78 19 
34097536140 152 49 49 79 102 59 60 70 
34097727552 322 60 60 70 60 60 60 30 
34097718485 111 89 79 108 88 89 74 89 
34097717290 210 90 90 90 90 90 90 90 
34097713002 141 81 19 30 25 69 19 69 
34097707519 189 129 67 129 49 99 62 99 
34097703231 141 52 49 79 49 49 49 49 
34097702036 117 110 19 80 49 19 19 57 
34097697748 141 49 49 49 49 49 19 19 
34097692265 111 30 19 49 19 30 19 30 
34097686782 111 22 19 19 19 19 19 44 
34097682494 162 30 97 23 80 19 80 30 
34097681299 141 49 62 27 71 79 50 113 
34097677011 131 19 39 49 39 19 39 49 
34097671528 391 55 69 19 19 19 19 19 
34097667240 311 49 49 49 49 49 89 49 
34097666045 221 49 96 49 97 49 65 49 
34097661757 111 19 19 19 47 19 19 32 19 
34097650791 161 49 60 19 49 29 60 40 64 
34097646503 141 129 49 99 86 129 49 49 49 
34097645308 141 50 49 59 19 59 91 59 49 
34097641020 171 60 60 60 60 100 60 126 60 
34097631249 182 82 60 99 60 90 60 90 90 
34097630054 141 55 49 74 19 36 49 49 59 
34097625766 111 19 19 29 19 30 20 31 29 
34097620283 133 31 20 19 59 19 29 37 229 
34097614800 338 92 89 79 89 79 89 79 89 
34097610512 311 49 79 49 49 49 55 49 54 
34097609317 132 30 70 19 70 19 40 19 59 
34097605029 194 49 95 49 96 89 66 49 101 
34097599546 158 60 30 60 90 60 33 60 71 
34097595258 141 68 49 49 66 59 79 59 67 
34097594063 147 59 85 19 19 49 49 49 19 
34097589775 122 60 60 40 30 70 60 40 30 
34097584292 331 29 24 29 60 29 65 29 49 
34097578809 111 29 19 29 27 29 19 29 19 
34097574521 152 61 100 79 49 74 19 80 60 
34097573326 141 102 99 111 49 120 49 129 91 
34097569038 111 49 49 19 49 55 19 19 19 
34097563555 141 66 49 49 49 19 49 49 19 
34097559267 121 31 29 31 29 31 29 19 29 
34097558072 322 30 30 30 30 30 30 30 30 
34097553784 351 119 89 54 59 49 102 49 81 
34097548301 192 194 40 30 40 60 70 30 80 
34097542818 211 49 119 86 129 49 140 85 140 
34097538530 127 19 85 19 55 19 19 49 19 
34097537335 182 49 99 49 129 49 99 49 99 
34097719680 359 49 95 49 96 89 96 49 97 
34097714197 146 60 60 99 65 60 49 30 66 
34097709909 141 68 49 79 49 89 80 89 49 
34097708714 177 49 85 49 19 49 49 49 49 
34097704426 175 78 91 89 49 89 66 89 91 
34097698943 141 100 60 70 60 70 65 100 49 
34097693460 353 29 19 59 91 29 19 29 19 
34097689172 140 19 30 49 30 19 30 19 78 
34097687977 141 72 53 59 73 60 49 39 49 
34097683689 111 19 19 19 19 19 19 19 19 
34097678206 111 19 19 19 19 29 19 29 19 
34097673918 121 30 29 30 29 31 29 30 29 
34097672723 152 60 60 60 60 60 60 30 60 
34097668435 121 19 29 19 29 19 29 19 29 
34097662952 321 49 59 19 29 19 29 36 39 19 
34097657469 211 49 100 58 99 49 110 49 110 49 
34097653181 111 19 33 29 66 19 19 19 19 19 
34097651986 152 243 39 25 39 51 99 19 99 49 
34097647698 111 19 260 19 60 49 30 19 30 19 
34097642215 111 49 19 19 19 19 49 19 29 19 
34097637927 140 100 60 100 60 100 19 100 60 100 
34097636732 111 19 49 49 49 19 37 19 19 32 
34097632444 152 89 85 122 49 101 49 140 49 110 
34097626961 111 30 219 69 19 69 19 239 19 69 
34097621478 111 39 19 39 19 69 19 39 19 37 
34097617190 111 49 19 19 49 19 49 19 19 19 
34097615995 141 110 49 80 19 80 49 49 19 74 
34097611707 111 49 49 49 49 49 49 49 19 19 
34097606224 311 60 49 49 49 60 49 60 79 52 
34097601936 370 49 59 67 99 86 129 49 69 49 
34097600741 141 49 49 49 49 49 49 49 50 49 
34097596453 191 49 110 92 110 30 110 90 30 60 
34097590970 232 51 140 49 140 49 140 49 55 49 
34097585487 191 19 39 49 60 19 19 19 43 19 
34097581199 111 19 29 19 29 19 19 19 19 38 
34097580004 111 19 19 19 19 49 26 19 19 21 
34097575716 141 19 49 49 19 32 49 41 59 50 
34097570233 141 49 78 68 54 79 49 76 50 89 
34097565945 141 69 49 99 49 69 19 49 49 55 
34097564750 141 52 73 61 60 70 49 70 49 40 
34097560462 141 99 50 69 49 79 66 49 49 49 
34097554979 152 30 60 60 60 60 60 60 30 60 
34097549496 311 90 19 55 49 49 49 49 59 55 
34097545208 311 19 19 19 38 19 19 19 19 19 
34097544013 141 79 59 75 49 50 49 19 49 64 
34097539725 154 79 71 86 80 60 89 49 89 84 
34097720875 122 60 60 60 60 60 60 60 79 60 
34097716587 170 219 59 49 69 44 69 49 129 43 
34097715392 311 49 19 49 62 102 71 19 80 120 
34097711104 391 49 140 87 140 60 140 67 60 60 
34097705621 202 86 110 49 140 76 80 49 49 49 
34097700138 221 49 99 49 49 55 49 59 80 49 
34097695850 123 19 30 19 30 49 30 19 30 19 
34097694655 111 19 59 19 55 19 22 49 19 19 
34097690367 141 49 88 49 49 49 45 71 49 80 
34097684884 120 19 19 19 19 19 19 19 219 29 
34097680596 111 39 19 39 19 39 19 19 19 19 
34097679401 122 30 30 31 31 40 30 40 30 40 
34097675113 111 39 19 39 19 56 19 219 49 49 
34097669630 141 49 49 49 49 55 89 55 49 55 
34097664147 111 55 19 19 19 22 19 19 19 219 
34097659859 111 19 19 19 19 19 19 19 19 19 29 
34097658664 311 19 19 19 19 19 20 19 19 19 19 
34097654376 311 19 52 57 31 30 70 19 40 19 40 
34097648893 171 49 89 67 89 91 89 91 89 49 89 
34097644605 142 30 50 30 60 30 22 30 30 30 30 
34097643410 121 49 29 49 59 19 29 224 59 194 29 
34097639122 148 49 49 89 99 49 85 49 86 49 74 
34097633639 142 49 86 49 85 89 55 49 55 19 19 
34097628156 128 19 30 49 64 25 45 49 59 49 49 
34097623868 111 19 19 19 19 29 31 29 19 29 23 
34097622673 141 89 90 49 79 49 49 49 89 49 59 
34097618385 142 59 79 59 79 89 65 89 49 59 19 
34097612902 165 40 30 40 19 40 65 40 19 40 19 
34097608614 141 96 49 96 49 97 49 95 49 70 49 
34097607419 183 89 49 102 88 111 49 120 76 129 85 
34097603131 152 125 60 60 100 60 70 49 60 60 60 
34097597648 311 85 49 49 49 85 49 49 49 49 49 
34097592165 129 219 19 19 19 19 19 19 49 19 49 
34097587877 121 72 59 90 29 36 29 30 59 49 232 
34097586682 111 62 19 19 19 19 19 19 19 19 19 
34097582394 121 19 29 19 29 28 59 19 30 19 39 
34097576911 181 49 108 49 119 91 86 49 99 49 99 
34097572623 177 49 68 49 90 49 49 49 49 49 49 
34097571428 184 49 131 49 140 19 140 89 140 49 140 
34097567140 111 19 70 19 19 19 19 19 19 19 19 
34097561657 162 60 91 60 60 60 90 60 60 60 49 
34097556174 141 19 19 19 29 49 29 19 88 49 19 
34097551886 152 70 69 89 30 119 67 99 19 110 19 
34097550691 111 219 19 19 19 19 19 19 49 19 19 
34097546403 111 62 59 101 32 80 219 80 33 80 19 
34097540920 311 99 49 129 49 129 55 99 30 129 49 
34097536632 322 64 19 60 19 60 49 60 49 30 49 
34097535437 111 39 19 39 229 19 19 19 19 19 206 
34097728325 141 19 21 19 49 19 19 19 19 19 19 
34097727060 111 19 19 19 19 19 19 19 19 19 19 
34097717782 152 95 30 54 70 60 30 19 30 60 30 
34097712299 141 49 49 49 49 99 49 49 49 49 49 
34097706816 311 80 49 49 49 49 49 49 49 49 49 
34097702528 332 19 70 60 40 59 70 42 59 19 70 
34097701333 141 88 49 79 49 19 49 49 49 49 49 
34097697045 121 25 29 19 42 19 51 19 30 19 39 
34097691562 181 19 48 19 89 19 56 19 99 49 69 
34097687274 111 19 19 19 19 19 19 19 19 19 19 
34097686079 132 30 41 30 50 22 50 30 50 19 80 
34097681791 111 19 22 19 19 19 21 19 19 19 22 
34097676308 182 60 90 90 60 90 60 60 60 60 60 
34097670825 111 49 49 49 49 49 49 49 49 49 51 
34097666537 111 59 49 29 49 108 97 89 49 99 49 
34097665342 111 19 49 49 49 49 49 49 49 68 49 
34097661054 111 262 19 41 19 80 19 50 49 50 19 50 
34097655571 111 69 19 99 19 69 19 69 19 69 49 56 
34097651283 111 59 19 30 19 30 19 19 19 30 19 230 
34097650088 311 39 19 39 19 19 19 19 19 19 19 19 
34097645800 311 19 49 49 49 49 49 49 19 49 49 49 
34097640317 111 19 19 19 19 19 19 28 19 19 19 19 
34097634834 152 60 60 60 60 60 60 60 82 90 91 90 
34097630546 211 85 86 85 69 49 129 49 129 49 99 49 
34097629351 141 19 62 68 71 60 50 90 59 60 59 60 
34097625063 131 22 39 19 39 19 39 19 19 19 33 19 
34097619580 202 49 140 49 49 49 49 49 74 60 49 60 
34097614097 191 19 49 49 49 49 24 19 49 59 49 49 
34097609809 122 19 30 49 60 49 60 73 102 52 54 61 
34097604326 141 49 49 49 49 68 49 79 49 89 121 59 
34097598843 111 19 36 19 19 19 47 29 49 29 19 29 
34097593360 322 61 60 100 60 100 102 100 102 100 60 100 
34097589072 311 19 49 74 19 43 49 73 49 49 36 49 
34097583589 111 19 19 19 19 19 19 24 19 25 19 26 
34097579301 111 19 19 19 19 19 19 34 19 37 19 48 
34097578106 122 19 95 49 30 19 36 19 60 191 49 49 
34097568335 144 19 31 72 70 30 40 73 70 60 270 102 
34097562852 168 79 89 42 59 79 89 43 59 49 102 58 
34097558564 122 60 19 30 60 60 30 60 30 60 54 30 
34097557369 151 19 59 20 59 219 59 19 108 19 89 19 
34097547598 147 19 86 19 84 19 64 59 67 19 19 19 
34097543310 141 68 60 79 49 89 72 89 60 89 60 89 
34097542115 188 49 96 49 49 49 49 49 49 49 49 49 
34097537827 169 78 75 89 49 89 77 89 73 89 113 102 
34097713494 111 49 19 19 49 78 19 29 19 29 49 29 
34097709206 141 140 49 110 49 140 49 49 49 49 49 62 
34097708011 146 50 86 89 49 89 91 89 49 59 49 89 
34097703723 141 49 49 74 49 85 49 79 49 86 66 74 
34097693952 311 89 49 49 19 59 49 80 19 82 49 61 
34097692757 152 214 19 19 30 19 19 19 55 44 19 19 
34097688469 141 19 19 49 49 19 220 54 29 20 59 49 
34097682986 122 42 31 30 40 30 40 30 40 30 40 30 
34097673215 111 19 19 19 19 19 19 20 19 19 19 19 
34097672020 151 19 29 19 29 24 59 219 59 19 89 19 
34097667732 162 49 73 49 85 49 49 49 49 49 49 49 
34097662249 135 19 19 19 54 19 22 19 55 19 19 19 19 
34097657961 122 49 30 30 19 40 39 40 95 40 30 40 19 
34097652478 141 49 55 59 80 89 22 89 49 29 61 29 205 
34097646995 158 59 49 89 49 89 121 59 19 108 19 119 49 
34097641512 475 40 30 70 30 59 31 40 30 41 19 80 30 
34097637224 311 19 19 19 159 25 19 41 49 52 19 19 19 
34097631741 141 86 49 55 49 96 49 49 49 49 49 49 49 
34097626258 121 19 19 49 19 19 19 19 19 29 19 59 19 
34097621970 121 19 229 49 59 19 29 19 29 19 29 69 29 
34097620775 111 19 19 49 49 49 49 19 49 19 19 19 19 
34097616487 132 60 70 60 100 49 70 19 100 31 101 49 80 
34097611004 151 49 29 49 59 49 59 49 39 19 69 49 39 
34097605521 200 49 108 86 88 49 99 19 99 49 129 49 49 
34097601233 147 49 49 19 226 49 49 49 19 49 19 49 59 
34097600038 163 54 110 60 110 85 80 30 110 30 80 30 19 
34097595750 111 19 19 19 19 19 19 19 219 19 36 19 19 
34097590267 111 19 19 19 220 19 19 19 49 19 19 19 19 
34097585979 310 59 19 29 19 59 71 29 19 59 19 69 19 
34097584784 351 49 89 49 49 49 55 49 59 62 49 49 72 
34097580496 323 29 19 29 19 60 19 39 19 39 27 39 19 
34097575013 141 131 49 110 49 140 49 140 49 140 49 49 49 
34097569530 141 99 49 269 49 129 49 69 49 19 49 49 49 
34097565242 122 70 60 63 60 90 60 61 60 60 60 60 60 
34097564047 142 99 49 99 49 84 49 114 19 66 29 36 49 
34097559759 141 49 49 49 49 29 19 49 49 49 49 19 49 
34097554276 111 19 19 20 19 19 19 28 219 19 19 19 19 
34097549988 211 19 130 49 80 86 110 49 140 49 80 49 110 
34097548793 141 84 49 49 62 49 71 61 80 61 59 49 89 
34097544505 210 19 99 85 129 19 99 19 49 19 19 49 80 
34097539022 221 97 129 49 129 87 129 49 66 49 56 49 85 
34097720172 140 19 108 56 58 19 99 19 69 19 99 49 19 
34097715884 151 19 49 49 56 49 19 49 49 49 49 49 19 
34097714689 133 57 80 30 80 30 250 49 50 30 50 60 60 
34097710401 141 49 49 49 49 49 49 49 49 49 53 49 49 
34097704918 141 49 49 19 49 49 49 49 49 49 49 49 49 
34097700630 141 89 49 89 49 108 49 119 85 116 49 129 49 
34097699435 152 49 60 49 60 49 78 49 60 73 68 82 95 
34097695147 153 89 80 59 49 90 49 99 49 69 49 99 49 
34097689664 322 41 30 50 30 80 30 50 30 50 19 60 30 
34097684181 111 39 19 69 19 39 19 39 49 19 19 19 49 
34097679893 122 30 30 34 30 30 30 30 30 19 30 30 30 
34097678698 111 69 49 69 19 54 19 64 19 85 19 19 219 
34097674410 111 229 19 59 19 29 19 59 19 49 19 49 19 
34097668927 111 49 49 19 19 49 49 49 68 49 68 67 78 
34097664639 162 49 70 49 80 49 80 49 80 49 80 49 80 
34097663444 111 49 19 19 19 19 19 19 20 219 29 19 29 19 
34097659156 150 19 39 19 69 19 69 25 19 19 19 19 19 19 
34097653673 131 19 69 19 39 23 39 19 19 19 37 19 19 19 
34097648190 202 60 110 60 56 66 60 60 60 60 96 66 52 66 
34097643902 129 19 49 19 49 19 49 49 19 49 49 71 62 50 
34097642707 141 59 55 49 49 49 49 58 49 49 49 49 49 49 
34097638419 152 60 60 60 60 73 68 82 90 91 60 100 60 100 
34097632936 311 49 89 49 60 79 60 76 49 89 49 89 60 59 
34097628648 331 69 19 39 24 69 19 19 19 19 19 19 19 19 
34097627453 111 19 49 20 19 59 19 29 19 59 19 29 19 29 
34097623165 111 80 19 110 49 19 60 59 30 19 30 74 30 19 
34097617682 141 19 19 54 19 19 29 55 29 19 219 114 19 57 
34097612199 111 19 19 19 19 19 19 19 19 19 19 19 19 19 
34097607911 141 49 49 49 68 49 68 91 78 49 89 49 89 49 
34097606716 182 90 130 114 90 115 90 49 90 105 90 90 90 90 
34097602428 111 19 19 19 20 49 59 19 29 37 29 49 29 59 
34097596945 182 94 100 90 100 124 100 78 100 99 100 60 119 61 
34097592657 221 49 129 49 85 49 86 49 52 49 55 49 85 49 
34097591462 181 60 59 49 89 102 59 30 113 88 122 19 131 49 
34097587174 303 19 19 49 66 19 66 51 237 25 49 19 36 19 
34097581691 111 30 19 60 49 30 19 30 19 33 19 49 30 19 
34097576208 352 55 85 78 86 49 64 49 49 49 49 49 49 49 
34097571920 311 60 19 27 30 70 60 40 19 70 30 40 19 83 
34097570725 177 89 96 49 49 49 49 49 49 49 49 49 49 49 
34097566437 111 59 19 29 31 59 19 29 19 59 19 48 19 29 
34097560954 111 59 20 29 19 59 59 48 19 48 19 58 19 69 
34097556666 141 19 25 19 19 49 29 52 49 19 49 56 19 19 
34097555471 180 70 30 83 19 92 19 101 24 110 31 110 19 110 
34097551183 111 19 19 55 44 55 19 19 19 19 19 19 19 19 
34097545700 120 49 49 19 19 70 19 19 19 19 19 19 19 19 
34097540217 152 49 49 30 49 60 49 60 49 60 49 30 49 60 
34097535929 181 49 89 91 89 49 89 49 108 50 111 49 120 49 
34097727833 111 19 219 19 19 19 19 19 49 19 19 19 19 19 
34097721367 158 96 70 101 60 97 60 49 260 135 60 60 60 90 
34097717079 141 49 71 37 20 33 59 19 59 67 89 37 59 37 
34097711596 171 49 89 91 89 49 89 49 89 49 89 91 108 100 
34097707308 221 85 129 49 20 19 86 19 44 89 85 49 85 49 
34097706113 192 30 100 59 100 72 100 60 83 47 122 49 131 19 
34097701825 141 19 19 19 24 19 84 49 56 19 19 29 19 19 
34097696342 141 49 19 66 49 25 19 36 19 22 19 49 70 19 
34097690859 147 49 19 49 56 49 222 19 49 49 19 49 49 49 
34097686571 122 30 30 30 30 40 31 40 30 40 30 40 30 40 
34097685376 311 19 19 19 19 19 19 19 19 19 19 19 19 19 
34097681088 322 59 90 59 90 29 90 29 19 59 60 89 19 40 
34097675605 139 29 31 29 49 259 19 59 19 48 19 29 49 99 
34097671317 141 74 89 56 49 55 49 52 49 86 85 86 49 49 
34097670122 111 29 19 29 49 29 19 30 19 39 19 39 19 39 
34097665834 141 114 49 85 89 85 49 49 49 49 49 49 49 49 
34097660351 111 19 25 19 19 19 19 29 19 19 19 19 19 19 19 
34097654868 144 19 19 230 19 36 49 30 49 30 19 30 19 48 49 
34097650580 121 49 29 19 29 36 29 61 59 219 81 19 60 25 69 
34097649385 111 19 19 19 19 19 19 28 19 19 19 19 19 19 19 
34097645097 162 60 70 60 83 49 292 60 101 60 110 60 110 60 110 
34097639614 181 19 59 19 40 50 67 19 140 49 140 19 80 50 80 
34098922012 182 
34097635326 177 55 96 49 101 49 49 49 49 49 49 49 49 49 49 
34097634131 203 86 120 49 129 49 129 49 129 49 129 49 61 49 49 
34097629843 141 49 19 19 49 19 19 19 19 19 19 49 49 19 19 
34097624360 311 19 20 19 19 49 49 19 19 19 49 19 19 19 28 
34097618877 111 19 19 19 19 19 19 19 19 19 19 19 37 19 19 
34097614589 111 59 19 48 19 78 43 88 49 99 19 69 49 99 19 
34097613394 122 49 30 49 30 19 30 19 30 19 19 90 19 40 19 
34097609106 141 89 49 60 49 129 49 99 62 99 19 99 49 99 49 
34097603623 152 140 55 140 49 110 57 140 60 110 30 56 66 66 60 
34097599335 111 19 49 49 49 49 19 50 19 19 19 19 19 19 19 
34097598140 141 80 19 50 19 49 49 19 49 55 49 19 27 26 19 
34097593852 141 49 19 19 19 49 49 49 49 49 49 49 62 49 49 
34097588369 141 49 19 19 49 28 19 29 19 29 49 49 19 72 19 
34097582886 111 49 19 19 19 19 38 33 41 43 50 49 59 48 59 
34097578598 132 19 40 19 50 19 50 19 50 19 50 19 19 30 29 
34097577403 141 49 62 57 71 79 80 49 89 49 89 49 89 79 89 
34097573115 221 49 129 49 129 80 129 49 61 19 84 49 85 89 85 
34097567632 331 19 99 19 19 19 96 19 43 19 49 55 95 19 38 
34097563344 311 19 49 19 19 19 19 49 49 19 49 68 49 38 42 
34097562149 202 60 84 60 97 60 95 60 96 70 84 60 97 60 49 
34097557861 141 49 49 49 19 19 49 32 19 41 49 20 19 59 59 
34097546895 121 49 30 19 28 19 30 29 30 29 30 29 212 29 43 
34097542607 141 99 92 129 49 129 49 86 49 96 59 84 49 90 49 
34097541412 111 20 49 59 19 29 49 29 19 59 49 29 19 29 19 
34097537124 132 49 19 19 30 66 49 79 49 19 60 83 70 49 49 
34097713986 111 34 19 19 19 19 19 19 49 19 19 19 49 19 19 
34097712791 141 80 49 80 49 49 49 49 49 49 49 57 49 49 49 
34097708503 111 49 49 49 19 49 49 49 49 49 49 49 62 22 41 
34097703020 111 30 19 78 49 60 49 60 49 89 19 49 60 49 57 
34097693249 162 30 97 60 80 30 80 49 110 30 80 30 24 30 49 
34097692054 141 58 32 49 41 49 80 19 89 79 59 49 89 50 89 
34097687766 191 49 99 49 99 49 99 49 49 49 49 49 49 49 68 
34097682283 161 19 39 19 219 19 43 19 19 19 19 28 49 49 43 
34097677995 111 19 29 19 19 19 19 19 19 19 19 19 19 19 19 
34097672512 311 49 49 49 49 49 49 62 63 71 49 80 49 89 89 
34097667029 171 19 19 49 49 68 20 79 36 89 45 89 31 59 31 
34097661546 131 79 30 19 54 29 60 70 19 70 41 40 49 40 49 240 
34097657258 111 69 49 69 49 99 19 19 25 19 19 61 19 66 219 62 
34097656063 141 50 79 89 49 59 91 89 49 89 49 29 49 89 49 59 
34097651775 141 60 30 60 60 100 60 30 60 77 60 60 60 60 260 60 
34097646292 141 73 49 86 49 85 59 55 49 115 49 86 49 52 49 49 
34097642004 152 60 30 60 30 30 30 60 30 30 30 60 70 60 40 30 
34097640809 111 19 19 19 19 19 19 19 19 19 219 19 19 19 19 19 
34097636521 111 19 38 19 49 19 50 60 89 60 29 30 59 60 29 19 
34097631038 141 61 20 49 29 49 59 49 29 61 29 49 29 19 59 49 
34097625555 111 23 29 20 29 19 29 19 29 19 29 19 29 19 30 54 
34097621267 111 19 19 19 19 19 19 19 219 19 19 29 49 19 19 19 
34097620072 332 30 40 65 70 62 70 60 59 49 70 19 110 19 110 19 
34097615784 311 49 49 49 49 59 49 49 49 49 49 49 52 49 49 49 
34097610301 146 60 60 31 125 60 75 60 45 60 19 60 66 60 60 60 
34097606013 111 38 79 19 19 59 19 59 24 259 19 29 19 59 58 48 
34097604818 177 89 85 49 49 49 49 49 19 49 49 49 49 49 49 49 
34097600530 128 89 72 70 60 100 77 70 60 70 60 40 64 100 156 71 
34097595047 191 59 54 59 120 89 125 89 19 119 49 100 44 97 19 110 
34097589564 111 29 19 29 19 29 19 29 19 30 19 39 19 39 19 39 
34097585276 152 219 30 74 30 44 30 19 36 59 19 30 19 30 19 30 
34097584081 116 29 32 29 19 230 22 39 19 39 19 39 19 39 49 19 
34097579793 111 19 19 19 19 19 19 19 19 19 19 29 19 22 19 29 
34097574310 141 66 49 49 19 19 49 49 49 49 49 49 49 49 49 49 
34097570022 181 79 89 50 89 72 89 49 89 49 108 58 108 49 118 49 
34097568827 122 60 30 60 60 60 60 30 60 30 60 60 60 30 60 60 
34097564539 181 61 59 61 59 19 72 28 81 219 90 19 129 19 99 26 
34097559056 332 30 40 30 40 30 40 30 50 23 250 30 50 27 50 30 
34097553573 211 49 119 19 129 49 140 49 140 55 170 19 19 19 19 19 
34097549285 217 49 49 59 105 49 19 19 49 49 49 49 49 19 49 49 
34097548090 352 49 69 49 39 19 99 49 69 19 99 49 49 19 49 49 
34097543802 141 49 60 49 60 49 60 49 60 49 60 49 60 49 60 49 
34097538319 141 49 49 49 58 49 49 49 49 49 49 49 49 49 49 49 
34097720664 311 68 49 79 49 89 80 59 19 89 49 89 19 89 19 108 
34097719469 147 89 55 49 49 49 89 49 49 49 49 49 49 49 49 19 
34097715181 169 49 19 59 37 59 19 89 79 59 19 102 69 59 29 60 
34097709698 149 100 90 100 90 100 90 100 49 100 49 100 49 127 74 110 
34097704215 146 59 19 89 91 108 20 89 49 90 49 129 19 99 80 99 
34097699927 152 61 100 49 66 69 49 75 60 52 49 60 49 60 49 60 
34097698732 311 72 19 51 19 60 19 69 219 99 19 269 19 69 19 19 
34097694444 111 19 49 19 29 19 49 19 19 19 19 29 49 59 19 59 
34097688961 141 19 19 19 19 49 19 49 19 19 219 50 19 19 19 54 
34097684673 151 60 29 60 29 60 29 60 29 59 89 19 59 19 69 19 
34097683478 122 40 30 19 30 31 30 30 30 30 30 67 30 30 30 30 
34097679190 121 19 29 19 29 19 42 27 51 19 30 19 69 19 69 19 
34097673707 121 49 29 19 29 19 29 49 39 19 69 19 39 19 69 19 
34097668224 351 19 59 19 69 19 80 19 80 19 80 19 19 19 19 230 
34097663936 311 19 75 19 19 19 19 19 19 19 22 19 19 19 19 19 
34097662741 152 19 269 19 39 19 39 19 39 19 69 19 20 22 19 19 19 
34097658453 111 19 36 19 69 19 30 19 30 19 47 19 28 19 69 19 30 
34097652970 111 19 19 19 29 19 19 19 19 19 19 19 19 19 19 19 50 
34097648682 152 70 60 70 30 40 60 100 60 70 24 80 24 80 49 110 30 
34097647487 141 49 49 49 49 49 49 49 49 49 49 49 49 50 49 59 49 
34097643199 122 59 19 62 49 71 19 50 49 250 27 50 19 50 19 19 49 
34097637716 111 60 19 39 19 39 19 69 19 269 19 19 19 19 29 19 51 
34097632233 188 99 49 129 49 129 61 99 49 85 49 90 49 95 49 96 49 
34097627945 111 19 19 19 19 19 19 19 19 19 19 19 19 19 19 33 23 
34097626750 111 50 32 80 19 20 219 44 19 19 30 49 30 19 30 19 30 
34097622462 111 19 19 19 19 19 19 19 19 19 19 19 19 48 19 36 29 
34097616979 111 60 49 60 49 30 19 60 49 49 19 72 89 30 70 49 100 
34097612691 151 49 59 19 99 19 69 19 69 19 99 19 39 49 37 19 49 
34097611496 311 49 49 49 49 66 49 75 50 79 59 95 59 55 59 61 59 
34097607208 391 49 140 92 110 60 110 97 30 60 96 60 91 30 96 60 49 
34097601725 172 19 80 19 140 58 140 19 44 49 19 49 44 19 25 19 26 
34097596242 191 49 129 49 49 50 49 49 50 49 55 49 56 55 49 79 85 
34097591954 117 49 19 19 19 49 49 49 49 38 60 71 73 50 30 59 129 
34097590759 141 49 46 49 96 19 86 49 19 19 126 49 96 49 49 49 19 
34097586471 141 19 19 19 28 19 19 19 19 50 23 29 49 59 19 29 19 
34097580988 120 19 19 19 19 19 19 19 19 29 31 29 19 29 19 29 19 
34097576700 172 129 49 129 49 99 49 49 19 85 89 85 49 56 49 79 49 
34097575505 152 82 61 91 90 100 60 100 49 100 61 100 49 100 60 100 74 
34097571217 111 99 50 69 49 66 19 97 49 90 49 101 59 96 19 97 49 
34097565734 182 95 60 70 96 96 70 96 90 157 90 125 30 49 100 66 60 
34097560251 111 51 49 49 19 55 53 19 59 55 49 19 19 49 49 19 19 
34097555963 141 49 49 19 49 49 49 49 49 19 29 19 29 19 29 49 340 
34097554768 341 55 89 55 49 56 49 49 79 55 49 49 49 49 49 55 49 
34097550480 324 49 71 64 50 90 89 57 89 78 89 49 59 95 59 19 89 
34097544997 111 19 59 49 59 49 59 19 29 19 29 19 78 19 29 49 60 
34097540709 142 49 110 19 34 19 19 30 49 70 61 19 31 49 19 60 19 
34097539514 151 79 89 49 89 91 89 49 29 84 89 49 120 49 99 49 69 
34097535226 282 19 19 19 19 20 19 19 219 19 19 19 19 49 19 19 19 
34097727341 111 19 19 19 19 19 19 19 19 19 19 19 19 19 19 19 19 
34097716376 372 49 80 49 110 49 110 49 81 49 60 55 49 59 49 49 49 
34097710893 221 49 129 49 86 49 74 89 85 49 85 49 81 55 74 86 85 
34097706605 152 49 60 49 60 49 60 49 60 79 84 82 61 91 90 100 159 
34097705410 147 49 66 49 91 49 56 55 85 89 55 89 96 49 49 49 49 
34097701122 111 49 58 49 49 49 49 19 49 50 19 29 49 89 49 59 49 
34097695639 150 49 19 68 279 79 19 49 49 59 61 29 79 59 19 59 49 
34097691351 172 69 49 69 49 69 49 49 49 49 59 49 49 49 49 49 49 
34097690156 152 60 90 61 91 70 60 70 60 70 90 70 60 70 72 289 57 
34097685868 111 39 19 39 19 26 19 19 19 19 19 19 19 19 19 19 20 
34097680385 122 30 60 63 60 30 60 60 60 60 60 60 62 45 60 60 60 
34097674902 111 55 19 25 19 25 219 86 49 21 49 49 19 19 19 19 19 
34097670614 111 19 19 89 68 19 19 49 48 31 59 83 59 19 59 219 370 
34097669419 141 85 49 85 49 86 49 49 49 64 49 49 49 49 49 49 49 
34097665131 165 85 82 94 91 120 100 69 100 84 100 120 100 125 70 49 119 
34097659648 311 362 59 25 29 31 29 23 29 19 29 28 370 49 29 19 230 49 
34097655360 402 30 50 30 30 30 34 30 30 30 30 30 30 30 22 30 252 30 
34097654165 121 19 29 19 29 37 59 31 59 19 29 19 30 219 69 19 69 30 
34097649877 118 49 19 19 49 25 25 19 26 49 49 59 25 49 49 49 19 19 
34097644394 141 49 56 49 49 49 55 49 49 49 49 49 59 49 52 49 79 49 
34097638911 188 19 91 19 56 55 68 49 19 49 19 19 19 19 19 49 19 19 
34097634623 141 49 49 19 49 29 19 29 49 59 73 259 49 102 49 81 49 90 
34097633428 141 59 85 49 49 49 49 49 49 49 49 49 49 49 49 49 49 49 
34097629140 111 29 49 59 53 29 19 89 19 59 49 248 57 29 37 69 74 168 
34097623657 111 40 30 40 70 40 40 40 19 40 24 40 19 80 19 50 19 149 
34097619369 141 66 19 36 19 67 19 95 19 66 19 61 19 19 19 85 19 19 
34097618174 146 29 20 42 32 51 42 60 46 69 19 69 19 69 42 69 50 368 
34097613886 122 35 30 60 70 36 30 19 30 49 30 30 30 30 30 60 60 317 
34097608403 141 80 49 19 49 64 49 19 49 49 49 49 49 49 49 49 49 49 
34097602920 311 19 19 19 19 19 19 19 19 49 19 19 19 19 49 19 32 121 
34097598632 321 40 29 35 29 49 59 42 29 19 32 19 41 19 50 19 191 20 
34097597437 141 19 49 49 19 49 49 49 19 49 19 19 19 48 19 49 19 54 
34097593149 181 80 89 49 102 49 111 49 120 19 129 50 129 49 99 49 129 49 
34097587666 121 19 29 19 59 49 29 19 69 49 39 49 69 49 39 49 92 49 
34097583378 311 29 19 19 19 19 19 19 19 19 19 19 29 19 19 19 140 19 
34097582183 132 20 71 19 50 19 50 19 50 19 80 19 19 19 23 30 19 139 
34097577895 159 55 52 19 19 49 82 19 20 49 52 19 49 19 71 19 49 19 
34097572412 152 60 60 60 60 60 60 60 60 60 60 60 60 60 60 79 77 178 
34097566929 111 19 24 219 29 19 19 19 58 19 19 32 19 19 27 250 230 188 
34097562641 152 100 60 119 60 89 60 99 49 140 49 110 60 110 55 60 60 96 
34097561446 141 19 49 19 41 19 19 49 49 38 79 79 28 59 67 89 79 400 
34097557158 141 122 49 131 49 110 85 140 49 140 49 140 49 110 49 85 49 49 
34097551675 141 129 86 129 49 129 49 99 49 69 49 86 49 85 19 60 49 49 
34097547387 174 64 49 60 49 60 49 30 49 60 49 88 49 60 49 30 190 49 
34097546192 328 69 97 69 19 49 49 19 49 84 49 49 49 89 49 49 49 60 
34097541904 311 49 49 49 49 49 49 49 49 49 49 49 62 85 71 79 80 178 
34097536421 141 49 49 49 49 49 49 49 49 78 68 49 49 49 76 49 89 178 
34097717571 121 55 19 49 19 19 19 19 19 49 49 19 19 19 49 24 32 19 
34097713283 222 90 100 150 130 129 130 90 149 49 152 62 161 49 170 49 281 49 
34097712088 311 49 19 49 49 49 49 25 49 49 49 49 49 78 49 61 79 91 
34097707800 351 91 89 79 102 88 111 49 120 49 99 50 129 49 129 49 129 49 
34097702317 181 19 29 49 59 49 86 49 129 49 69 49 69 49 69 49 49 49 
34097698029 111 19 19 19 19 19 19 19 29 19 19 19 59 19 19 19 140 19 
34097696834 184 30 271 60 50 252 80 60 80 30 80 30 60 30 19 30 79 60 
34097692546 111 219 22 19 19 19 22 19 19 19 22 19 19 19 19 19 19 19 
34097687063 122 30 30 30 30 30 30 30 30 30 30 30 30 30 40 30 30 30 
34097681580 111 19 19 49 19 19 29 19 49 19 19 19 49 19 72 50 60 128 
34097677292 147 29 24 59 19 59 19 59 19 39 225 39 19 39 19 19 49 19 
34097676097 141 19 19 19 19 19 19 19 19 19 19 19 375 59 67 29 19 170 
34097671809 141 100 19 101 62 80 49 140 63 140 49 80 19 110 49 74 30 49 
34097666326 141 129 56 129 49 99 51 129 49 129 49 86 49 55 89 85 49 49 
34097662038 152 57 49 60 49 60 49 60 49 60 49 60 49 60 19 60 360 60 52 
34097660843 141 39 19 39 49 19 19 19 19 19 19 19 19 19 19 19 19 19 219 
34097656555 111 49 49 19 19 19 19 49 19 49 49 49 49 68 49 91 80 220 89 
34097651072 311 19 19 19 19 19 19 19 19 19 19 19 19 19 216 19 29 123 29 
34097645589 152 60 60 60 60 60 79 60 60 60 61 90 100 60 70 60 70 66 100 
34097641301 121 55 56 49 69 19 69 19 39 19 69 19 55 49 30 19 19 19 19 
34097640106 111 19 19 19 19 30 20 30 29 30 29 30 29 30 29 19 29 141 29 
34097635818 191 49 69 49 129 54 129 19 72 49 49 49 55 19 96 49 67 49 65 
34097630335 232 49 80 49 49 49 49 49 49 60 49 60 49 30 61 30 61 60 49 
34097626047 111 19 19 19 19 19 20 19 19 19 19 19 19 19 19 19 31 29 219 
34097624852 131 19 19 19 19 19 19 29 19 19 19 19 19 19 19 29 23 19 19 
34097620564 152 49 30 49 60 49 60 49 49 82 90 61 60 70 49 70 60 169 60 
34097609598 111 38 19 49 67 48 49 59 79 29 19 29 91 59 49 102 19 350 55 
34097605310 176 140 49 140 49 140 49 56 49 74 89 55 49 85 49 86 49 74 89 
34097604115 170 61 30 70 66 40 60 70 30 70 84 70 60 89 60 100 69 208 60 
34097599827 111 19 19 55 19 49 19 49 55 26 19 49 49 38 19 34 49 49 19 
34097590056 311 19 49 49 19 78 49 19 19 49 49 49 59 49 29 49 170 78 59 
34097588861 141 74 49 49 49 75 49 49 48 74 49 60 49 30 49 30 19 60 19 
34097584573 111 19 19 19 19 49 20 50 29 19 29 19 29 49 29 19 29 61 29 
34097579090 144 72 61 30 40 94 70 30 70 61 70 72 70 65 40 19 70 19 40 
34097569319 122 30 30 30 25 30 254 30 19 30 54 30 54 60 19 30 146 60 30 
34097568124 151 37 59 55 59 19 59 31 59 19 59 49 99 32 69 49 99 49 99 
34097563836 111 19 25 19 32 29 225 19 25 19 19 19 19 19 19 219 19 19 19 
34097558353 111 19 19 19 19 19 41 19 19 19 19 19 19 19 24 19 19 19 19 
34097554065 141 68 60 49 39 59 67 59 60 59 54 89 19 59 28 59 19 62 49 
34097548582 134 48 237 59 108 59 59 59 67 89 38 72 19 81 19 90 49 398 49 
34097543099 141 89 91 89 49 89 49 89 49 108 49 119 85 116 49 129 49 228 49 
34097537616 311 40 19 70 60 59 50 92 19 101 19 310 19 80 50 80 19 179 19 
34097719961 141 140 76 140 49 140 49 49 79 74 89 85 49 55 49 86 49 74 89 
34097718766 141 80 49 89 49 89 61 59 49 89 49 89 49 89 49 89 91 400 49 
34097714478 111 19 19 19 259 29 19 55 19 26 41 19 49 25 19 55 19 19 19 
34097708995 141 66 49 19 19 96 89 71 49 66 49 49 49 70 49 49 49 49 49 
34097704707 141 49 49 49 49 49 68 49 49 79 76 50 89 72 89 49 200 49 89 
34097703512 362 109 49 104 62 80 60 49 100 49 49 60 49 60 49 60 49 60 49 
34097699224 311 19 19 67 19 19 20 19 29 37 229 31 29 19 59 19 29 19 48 
34097693741 122 60 31 30 40 30 40 60 40 61 40 60 70 30 70 27 40 19 40 
34097688258 111 260 29 30 29 19 29 19 29 19 29 19 32 19 41 28 50 51 50 
34097683970 122 30 38 30 30 30 30 31 30 30 30 30 30 30 19 30 30 30 39 
34097682775 121 19 29 19 29 19 29 27 29 19 29 19 239 19 39 19 69 19 39 
34097678487 147 19 19 19 21 89 55 19 26 19 19 19 56 19 49 19 49 19 25 
34097673004 111 19 19 19 19 19 19 29 19 19 19 19 19 19 19 19 19 19 19 
34097668716 152 19 229 30 27 40 26 100 94 70 60 70 49 70 72 89 49 70 49 
34097667521 176 49 84 49 49 49 49 49 49 49 49 49 49 49 49 49 49 49 54 
34097663233 111 19 19 29 19 29 19 29 19 29 29 29 20 29 19 30 19 138 19 39 
34097657750 181 89 79 89 61 89 49 59 49 78 49 89 80 89 85 69 49 398 49 99 
34097652267 146 40 47 40 42 89 30 70 30 41 30 50 19 80 30 50 30 149 30 30 
34097647979 111 22 59 50 19 55 219 56 19 19 19 19 19 19 19 19 19 19 19 19 
34097646784 311 53 19 92 19 41 19 110 19 110 19 280 19 80 19 19 49 19 19 55 
34097642496 322 49 60 60 60 49 60 60 60 61 60 60 60 260 60 90 60 60 60 60 
34097637013 117 30 49 49 49 49 49 49 49 88 49 49 19 19 49 89 49 49 62 67 
34097632725 181 49 89 50 89 79 59 49 89 49 108 99 108 92 118 49 240 87 129 49 
34097631530 141 49 49 49 49 49 49 49 49 49 49 49 49 49 49 49 68 71 79 55 
34097627242 192 90 70 120 100 49 70 19 100 49 101 49 140 49 80 19 110 19 110 19 
34097621759 121 19 59 49 59 19 89 19 69 20 39 19 69 19 69 19 69 19 26 20 
34097616276 121 19 29 49 59 19 39 19 39 19 69 19 19 19 19 19 19 19 19 19 
34097611988 111 29 22 29 19 19 19 19 19 19 19 19 29 19 19 19 19 19 19 19 
34097610793 193 54 80 60 140 60 140 49 110 60 80 90 60 90 56 60 60 181 54 60 
34097606505 111 49 19 19 19 19 19 19 49 19 43 19 19 19 19 19 48 49 49 19 
34097601022 116 19 19 19 19 19 19 19 19 19 19 19 19 19 19 19 19 319 19 29 
34097596734 111 29 19 29 19 48 19 59 19 56 19 69 19 269 19 69 19 99 19 55 
34097595539 111 49 89 19 19 19 58 49 19 32 19 71 90 50 42 59 30 158 43 59 
34097591251 153 89 91 89 49 90 19 99 49 99 49 299 49 99 49 95 49 49 49 126 
34097585768 311 41 19 110 19 50 19 80 19 50 19 49 19 19 19 19 60 19 69 19 
34097580285 111 39 19 39 19 39 19 39 19 19 19 19 19 19 29 19 29 19 19 19 
34097575997 152 60 60 60 60 60 60 60 60 60 60 49 60 60 73 60 193 90 61 90 
34097574802 177 129 49 99 49 61 49 95 49 96 89 73 49 97 19 125 19 49 49 96 
34097570514 141 49 49 49 49 49 49 49 49 49 49 49 68 60 79 49 89 201 89 49 
34097565031 111 19 19 20 19 19 19 19 19 36 19 19 19 19 29 237 29 19 29 37 
34097560743 121 19 70 19 80 19 80 19 50 49 50 19 80 49 19 49 49 59 49 49 
34097559548 111 49 49 19 49 19 41 46 50 49 59 38 59 19 59 49 29 153 29 19 
34097555260 121 19 39 19 39 19 39 19 19 19 19 19 19 19 19 19 41 19 19 19 
34097549777 161 49 99 49 99 66 69 49 86 49 56 49 63 89 49 89 96 49 94 49 
34097544294 172 49 80 49 19 30 61 70 31 19 31 30 45 66 49 70 44 19 30 19 
34097540006 141 49 49 49 49 19 49 49 19 38 49 71 92 80 79 89 318 29 49 89 
34097538811 171 49 85 49 85 49 86 49 74 89 85 55 90 49 19 49 49 49 49 49 
34097728114 112 49 19 19 49 19 19 49 38 19 49 49 49 49 49 49 19 49 19 49 
34097721156 141 49 49 49 49 49 49 49 49 49 49 49 49 49 49 49 78 167 80 79 
34097715673 141 49 49 19 68 49 49 49 49 19 49 49 49 68 49 41 67 179 79 89 
34097711385 178 89 54 89 49 108 49 119 59 116 49 129 49 129 49 129 51 129 19 85 
34097710190 152 49 60 49 60 49 60 49 60 49 68 82 60 91 55 100 60 369 61 100 
34097705902 141 108 55 111 49 120 49 129 49 129 49 129 49 129 49 61 49 49 19 96 
34097700419 152 131 60 110 30 140 60 140 60 140 30 30 60 101 60 96 60 19 30 95 
34097694936 439 129 49 99 49 99 49 99 49 85 49 85 49 84 49 85 74 49 49 56 
34097690648 322 30 30 60 30 30 30 30 30 30 30 30 30 30 43 36 163 48 31 30 
34097689453 141 69 49 99 49 49 49 49 49 85 67 49 49 49 49 49 49 49 89 49 
34097685165 111 19 19 19 19 19 19 29 19 19 19 19 19 29 19 19 29 128 29 19 
34097679682 111 19 19 20 19 19 219 19 38 41 19 19 19 19 29 19 229 49 29 19 
34097675394 132 19 40 49 110 29 50 49 80 19 80 19 80 19 19 49 19 19 44 36 
34097674199 111 19 19 19 19 19 19 19 20 23 29 19 29 19 29 19 29 130 29 19 
34097669911 121 19 39 19 39 26 39 19 19 19 19 29 19 219 19 19 49 49 19 229 
34097664428 161 19 69 19 69 219 69 19 19 19 19 19 19 49 19 229 19 19 19 25 
34097658945 202 30 80 30 30 30 60 30 54 30 24 30 19 60 30 30 19 30 19 60 30 
34097654657 111 219 49 19 54 19 19 19 19 19 19 19 19 50 54 29 19 59 19 29 19 
34097653462 311 49 20 19 19 19 19 19 19 49 19 19 26 19 19 19 19 19 219 19 59 
34097649174 152 60 66 60 99 73 60 82 90 91 60 100 60 100 66 100 90 369 60 70 60 
34097643691 111 19 59 38 119 79 121 46 19 59 162 59 150 59 138 89 19 212 19 122 19 
34097639403 153 99 49 129 49 129 49 49 49 66 49 55 49 97 49 95 49 55 49 80 49 
34097638208 311 71 49 80 79 89 49 89 49 89 49 89 54 89 49 108 49 218 49 129 86 
34097633920 311 140 50 140 19 74 60 45 60 43 60 74 100 44 60 45 30 49 60 79 19 
34097628437 111 19 19 219 19 19 29 25 19 55 19 19 49 19 59 19 19 19 19 19 19 
34097622954 151 66 49 101 49 49 19 49 89 66 49 49 49 49 19 49 49 49 49 49 49 
34097618666 141 49 49 49 49 198 49 67 49 91 89 61 89 49 89 67 170 53 59 50 59 
34097617471 122 36 30 36 30 25 49 19 30 215 30 30 30 30 30 60 30 30 30 30 30 
34097613183 124 37 41 43 50 49 59 19 59 37 59 19 59 54 59 19 59 19 59 19 59 
34097607700 182 60 100 102 100 60 100 60 100 60 100 102 119 91 122 60 131 60 140 60 140 
34097603412 191 49 129 49 74 49 86 49 49 49 115 49 85 49 86 49 49 49 49 49 49 
34097602217 151 30 59 49 59 49 59 60 229 49 62 49 71 49 80 20 80 60 110 49 80 
34097597929 159 49 58 89 85 49 90 49 86 49 55 89 49 49 49 49 49 49 49 49 49 
34097592446 141 60 75 39 49 60 19 60 49 60 49 49 60 49 60 19 60 49 60 49 60 
34097586963 111 19 55 19 26 19 39 19 19 19 19 19 19 19 19 19 19 19 19 19 19 
34097582675 122 230 29 27 30 40 31 40 30 40 30 40 19 40 22 40 19 41 19 50 27 
34097581480 311 49 19 49 49 19 49 49 19 49 49 49 19 19 50 19 49 49 28 49 19 
34097577192 334 89 49 89 49 89 50 89 49 89 49 108 49 119 49 129 49 228 49 129 85 
34097571709 142 89 79 89 49 89 49 108 49 89 49 89 49 129 76 99 49 228 86 49 49 
34097567421 121 19 86 30 19 49 88 19 19 51 19 56 49 19 49 49 49 59 19 19 19 
34097566226 140 100 60 70 30 62 60 101 30 80 60 50 30 80 19 80 30 209 60 31 30 
34097561938 141 54 49 90 89 90 49 49 49 49 49 49 49 49 49 49 49 49 49 49 49 
34097556455 146 19 49 19 19 49 19 49 49 19 19 19 49 19 49 19 19 19 19 19 19 
34097550972 144 49 49 19 49 66 49 60 49 60 49 60 49 60 49 30 49 61 52 90 91 
34097546684 181 19 59 49 59 49 59 49 89 49 59 19 60 49 69 49 240 49 99 66 99 
34097545489 111 19 49 19 49 49 49 49 49 49 19 19 19 49 49 79 49 172 76 73 89 
34097541201 192 102 70 99 83 49 122 19 131 49 140 50 110 49 110 49 310 19 49 49 49 
34097535718 181 49 108 49 119 74 116 49 129 49 99 49 129 44 129 49 55 19 86 49 84 
34097726849 111 19 49 19 19 49 19 49 49 49 49 49 49 19 49 19 19 49 49 43 19 
34097718063 191 19 99 49 55 49 86 55 55 59 55 49 85 19 86 79 19 19 49 49 49 
34097716868 162 60 70 49 70 48 40 60 253 49 92 19 71 49 110 49 80 30 80 19 110 
34097712580 144 49 49 49 55 49 54 49 52 49 49 49 49 49 259 49 49 49 49 49 49 
34097707097 136 49 80 30 19 67 74 49 31 19 19 19 30 19 60 49 30 49 30 19 60 
34097701614 147 49 85 49 56 49 64 49 49 49 49 49 49 49 49 49 89 49 49 49 49 
34097697326 151 30 60 227 30 40 61 70 60 40 60 70 30 70 79 40 19 71 84 80 30 
34097696131 111 19 19 19 19 19 20 19 19 19 19 19 19 19 19 19 19 19 28 19 19 
34097691843 122 59 60 29 30 59 60 29 19 59 30 59 19 270 19 80 19 209 19 80 19 
34097686360 311 29 31 229 31 29 19 29 19 29 19 229 19 39 19 39 19 138 226 19 19 
34097682072 311 19 49 32 19 19 29 25 49 19 19 26 49 49 19 19 19 19 49 19 19 
34097680877 145 29 49 59 19 29 49 230 19 39 19 39 54 39 19 69 49 138 19 49 19 
34097676589 160 84 49 49 89 85 66 49 49 55 49 49 49 49 49 49 49 49 49 49 49 
34097671106 141 55 49 49 49 19 19 19 49 49 49 49 49 19 49 49 49 49 49 49 68 
34097665623 192 74 49 60 49 60 49 60 49 60 49 60 49 60 49 60 73 71 82 90 91 
34097661335 121 219 59 19 29 19 29 61 89 19 29 19 60 19 99 49 150 49 39 19 69 49 
34097660140 111 19 19 19 19 19 19 19 19 29 19 19 19 19 19 19 19 34 19 19 29 19 
34097655852 132 60 70 289 70 49 292 60 101 60 80 60 110 49 110 60 110 60 230 60 49 100 
34097650369 121 19 59 19 40 19 37 19 50 19 50 19 50 19 50 19 45 19 19 19 22 19 
34097646081 177 60 85 60 85 60 49 60 60 60 60 60 60 60 60 60 60 60 60 60 60 73 
34097644886 203 19 90 49 99 19 69 74 69 49 99 49 49 49 52 49 55 49 73 49 56 49 
34097640598 148 25 23 49 49 19 19 19 59 49 19 19 59 49 19 19 19 19 19 49 29 49 
34097635115 141 49 49 49 49 49 49 49 49 49 49 49 49 49 49 68 66 49 50 78 79 59 
34097629632 311 49 49 49 49 49 49 49 49 19 49 49 49 49 91 80 83 188 49 89 91 59 
34097625344 311 29 19 59 19 59 19 228 19 39 39 39 19 69 20 19 19 19 19 19 19 19 
34097624149 122 19 30 19 30 219 30 19 30 19 30 30 19 40 19 40 24 151 34 40 19 40 
34097619861 180 59 49 90 76 99 49 129 86 99 49 99 76 99 49 96 49 19 49 49 89 296 
34097614378 188 110 60 110 30 80 30 110 60 110 60 56 60 30 78 126 66 19 60 26 66 60 
34097610090 111 52 49 19 19 19 19 55 49 49 19 49 19 19 49 49 52 19 49 49 50 19 
34097608895 141 140 26 110 56 49 19 19 49 55 49 55 19 51 49 19 89 60 49 55 49 49 
34097604607 141 37 19 49 49 49 19 49 49 49 49 19 49 57 49 79 80 49 59 49 89 76 
34097599124 141 49 49 56 49 58 49 88 49 59 68 89 79 78 49 76 89 159 89 90 59 60 
34097593641 141 49 49 49 49 19 38 67 41 49 80 91 59 49 89 45 89 49 89 24 89 49 
34097589353 162 19 67 19 80 19 80 19 80 20 80 19 19 30 19 34 19 19 19 30 19 30 
34097588158 141 19 49 19 19 61 20 49 29 49 29 49 29 19 29 19 29 365 59 39 78 35 
34097583870 131 19 39 19 39 19 39 19 19 19 19 19 219 24 19 19 19 319 24 19 19 59 
34097578387 131 49 69 19 19 49 19 19 49 49 19 49 49 19 49 59 19 49 19 19 49 19 
34097574099 141 49 49 49 49 49 49 49 49 49 49 68 49 68 53 78 49 59 54 89 19 89 
34097572904 372 60 60 30 55 30 120 60 54 30 54 60 55 69 19 30 39 30 30 30 30 60 
34097568616 312 49 49 49 49 49 49 49 376 49 83 80 49 59 49 59 67 158 53 89 49 89 
34097563133 141 49 49 49 49 68 49 79 49 89 54 89 49 89 114 89 49 188 79 108 49 111 
34097557650 111 68 49 38 108 48 60 89 90 89 19 89 108 59 90 83 19 191 49 131 49 140 
34097553362 111 99 117 99 19 99 49 67 49 49 55 84 49 114 19 82 49 49 89 96 19 19 
34097552167 170 80 49 89 55 59 80 59 55 89 63 59 19 89 19 89 80 227 55 99 19 99 
34097547879 125 19 19 47 30 19 30 31 29 19 30 19 40 31 19 19 19 19 19 30 19 30 
34097542396 141 60 49 86 49 49 89 90 49 90 19 86 49 19 49 49 49 49 49 49 49 49 
34097538108 152 60 60 60 60 60 79 106 90 97 87 98 100 90 100 101 211 102 100 60 113 69 
34097536913 181 96 19 126 49 67 49 74 59 96 19 19 19 49 49 49 49 19 49 49 19 49 
34097719258 111 19 49 49 19 19 49 49 19 49 49 49 32 80 71 79 80 178 89 79 89 49 
34097713775 141 30 49 60 19 60 19 30 19 30 49 49 60 49 57 49 70 129 70 30 70 60 
34097708292 141 49 49 49 49 49 68 49 71 50 80 72 89 49 89 49 89 149 89 49 89 49 
34097704004 192 91 97 60 140 30 140 60 140 91 140 30 101 30 91 60 49 60 66 70 91 60 
34097702809 141 49 49 49 19 49 50 61 89 49 59 49 89 79 89 49 89 49 89 46 108 74 
34097698521 191 49 69 49 99 49 69 49 49 49 49 49 49 49 73 49 49 49 49 49 59 237 
34097693038 131 49 69 19 19 19 44 37 19 19 86 19 54 19 19 26 19 318 19 49 49 19 
34097688750 151 19 59 19 19 19 59 19 219 19 19 38 28 38 57 48 431 59 60 59 39 29 
34097687555 142 60 97 60 60 61 60 60 60 30 60 60 60 61 49 60 75 60 70 60 60 60 
34097683267 112 19 41 19 19 19 19 19 19 219 19 20 19 29 19 29 19 128 19 29 218 29 
34097677784 311 49 19 49 49 19 49 49 49 29 64 59 19 59 19 29 49 158 61 59 19 29 
34097672301 152 79 57 79 78 89 120 100 125 100 67 300 78 100 95 100 49 199 49 101 49 110 
34097668013 141 129 76 129 19 129 49 67 55 74 49 66 49 66 49 49 49 74 49 64 49 49 
34097666818 111 20 19 59 19 29 231 59 19 59 19 29 19 59 19 89 19 140 19 69 19 69 
34097662530 141 30 30 69 30 54 30 24 30 19 30 60 30 54 30 55 60 19 30 60 30 19 30 
34097657047 141 49 49 71 49 49 49 49 49 49 49 71 49 87 49 49 49 49 49 49 49 49 49 
34097652759 122 230 30 69 30 30 30 30 60 30 60 30 40 30 70 30 151 30 40 60 70 19 40 
34097651564 111 19 19 19 19 19 19 19 19 19 19 19 19 19 19 19 19 348 19 19 19 50 19 
34097647276 141 49 68 72 49 90 50 90 59 90 59 120 59 103 89 49 89 201 119 79 130 49 110 
34097641793 111 37 50 79 59 50 59 19 59 19 59 58 29 48 78 28 48 19 58 19 69 19 299 
34097636310 168 79 59 80 89 79 89 79 89 49 59 53 89 95 90 54 129 49 99 49 69 49 69 
34097632022 141 49 55 49 73 19 74 49 54 19 73 59 60 49 19 19 360 19 19 49 49 49 49 
34097630827 162 49 40 30 70 49 40 60 59 19 100 49 80 203 110 61 80 49 110 19 110 19 19 
34097626539 129 19 49 49 49 59 19 19 49 19 19 19 52 19 49 19 19 19 20 19 19 49 19 
34097621056 316 30 25 30 35 60 19 30 25 30 19 30 30 30 30 30 30 30 30 30 30 30 30 
34097616768 311 68 79 79 49 89 91 89 91 89 79 89 88 89 88 108 49 111 49 90 49 99 49 
34097615573 152 19 25 19 19 19 49 19 19 19 19 19 19 19 219 49 19 19 49 19 29 49 49 
34097611285 122 60 48 40 30 240 30 40 30 40 30 40 32 40 230 71 30 179 60 50 30 80 60 
34097605802 141 59 49 59 60 59 102 59 19 29 49 70 20 67 79 110 49 179 49 80 80 110 49 
34097600319 200 89 49 89 63 78 49 89 49 90 49 129 49 69 49 69 79 198 49 84 49 49 49 
34097596031 128 19 55 44 30 44 30 45 30 52 19 30 19 63 19 30 19 60 19 60 19 60 19 
34097594836 116 29 32 29 19 30 38 39 19 39 19 39 19 39 59 19 19 19 19 19 19 19 20 
34097590548 311 49 19 19 19 19 19 19 19 19 19 19 19 19 219 19 19 49 19 19 19 19 19 
34097585065 111 36 49 19 49 49 49 89 19 49 19 80 49 79 49 49 19 19 49 49 49 49 50 
34097580777 121 19 29 31 29 31 29 19 29 31 29 19 29 19 29 19 150 19 39 19 239 20 19 
34097579582 122 30 30 30 30 30 30 52 30 60 30 30 30 30 30 30 30 328 60 30 40 30 40 
34097575294 181 49 89 49 89 49 102 49 111 49 120 49 129 49 129 26 129 49 129 76 129 49 96 
34097569811 222 90 100 69 130 90 130 90 80 97 110 49 110 60 140 97 140 60 101 60 60 60 60 
34097564328 381 19 59 19 69 19 110 19 110 19 80 233 19 19 44 49 85 19 19 19 56 19 74 
34097560040 311 19 33 19 19 19 19 19 19 19 21 19 19 19 19 19 19 19 24 19 19 19 19 
34097558845 152 19 69 19 39 19 99 49 39 49 69 49 49 49 49 37 19 19 49 19 19 49 56 
34097554557 111 19 19 19 30 19 30 19 30 19 34 19 30 19 39 19 59 19 48 30 29 27 30 
34097549074 111 49 49 49 49 19 49 49 29 19 49 49 49 19 49 49 79 179 19 59 19 59 49 
34097544786 168 270 95 70 49 59 49 100 49 127 49 110 19 80 49 110 49 110 49 49 30 49 60 
34097543591 141 49 49 49 49 49 49 19 49 62 52 71 79 80 49 89 54 188 50 89 79 89 49 
34097539303 153 59 80 81 49 60 49 69 49 69 49 99 49 69 49 49 49 88 49 49 59 73 19 
34097720453 149 100 102 100 60 100 90 100 49 119 49 130 50 127 49 140 49 239 49 140 49 140 49 
34097714970 129 59 236 59 58 59 49 59 52 120 49 69 19 69 49 69 43 198 49 54 19 19 79 
34097710682 152 61 60 69 49 79 49 75 60 52 49 60 49 60 49 60 49 60 49 60 49 60 49 
34097709487 111 29 88 59 49 120 49 99 20 69 49 69 49 99 19 19 19 49 49 49 19 49 58 
34097705199 141 86 49 85 89 85 49 49 49 49 49 49 49 49 49 49 49 49 49 49 49 49 68 
34097699716 141 64 49 49 49 49 49 49 49 49 49 49 49 49 49 49 49 49 62 91 71 49 80 
34097695428 121 19 229 19 29 30 29 19 29 19 29 19 29 19 39 19 161 19 50 19 250 19 19 
34097694233 122 30 30 63 60 30 30 30 30 60 30 33 30 30 30 30 249 60 30 69 70 60 70 
34097689945 121 19 29 37 29 19 272 19 29 19 60 43 69 19 99 49 39 19 99 49 69 19 25 
34097684462 121 19 59 61 59 49 29 19 69 249 69 19 69 19 39 49 39 19 41 19 19 49 19 
34097678979 151 19 59 19 69 19 80 19 280 19 50 19 19 19 19 30 31 19 19 29 19 30 19 
34097674691 311 19 68 19 19 19 19 19 19 19 22 19 19 219 19 19 31 19 20 49 19 19 31 
34097673496 322 19 39 19 39 20 39 19 39 19 69 19 19 19 19 19 19 166 19 29 19 19 19 
34097669208 311 49 78 49 60 49 90 49 60 49 94 49 60 49 60 49 60 178 72 90 60 87 102 
34097663725 111 19 19 19 19 19 29 19 29 19 19 19 19 19 19 19 20 119 31 29 31 29 31 29 
34097659437 122 70 35 40 30 89 30 40 36 67 19 80 25 80 30 80 19 80 30 19 30 19 231 134 
34097658242 111 19 19 19 19 19 25 19 20 19 19 19 19 20 19 29 19 328 19 29 50 29 31 59 
34097653954 134 59 19 62 19 41 27 50 19 80 19 80 19 50 19 19 19 23 19 19 29 19 19 19 
34097648471 141 60 49 69 49 69 49 69 49 69 49 49 49 49 59 49 49 49 49 49 49 49 59 49 
34097642988 141 99 19 39 22 69 19 69 49 79 79 19 19 19 49 49 19 49 49 237 50 49 49 63 
34097638700 141 49 49 49 49 49 49 49 49 49 49 49 49 49 62 50 182 49 80 49 89 49 89 50 
34097637505 141 80 49 80 49 20 49 19 60 231 30 49 30 49 60 73 19 44 60 49 49 60 49 29 
34097633217 141 49 49 49 49 49 49 49 49 49 49 49 68 49 79 49 89 91 89 49 89 49 89 49 
34097627734 141 60 49 61 49 60 49 30 79 49 49 49 59 60 100 60 100 326 70 60 70 60 70 49 
34097623446 151 58 59 49 69 49 129 59 69 49 99 49 69 49 60 49 49 67 66 49 49 49 67 49 
34097622251 111 29 19 19 19 219 19 20 20 19 29 35 29 19 29 19 29 130 29 19 29 41 29 19 
34097617963 192 49 80 30 80 30 80 30 60 60 30 30 30 60 36 60 82 30 30 30 60 60 30 60 
34097612480 342 49 80 19 110 49 80 19 55 49 56 49 49 59 49 49 49 19 56 49 65 49 19 19 
34097606997 221 86 129 49 86 55 74 89 85 49 85 49 86 55 85 49 85 49 49 49 49 49 49 49 
34097602709 111 19 19 19 19 49 49 19 19 38 30 19 89 20 61 29 19 29 30 229 60 59 19 59 
34097601514 141 19 49 19 49 49 34 20 49 49 66 25 66 19 49 49 49 19 19 49 49 49 58 19 
34097597226 141 49 79 49 84 62 49 71 67 80 73 89 50 89 49 89 67 188 58 89 49 108 49 89 
34097591743 111 49 78 38 49 79 49 46 50 59 19 59 79 89 49 89 49 201 69 81 49 90 27 129 
34097587455 141 39 49 69 49 69 19 19 49 49 49 85 89 86 49 49 19 19 49 49 59 49 19 78 
34097586260 117 52 19 61 60 100 42 70 120 70 30 70 32 70 72 70 19 139 19 80 19 110 19 80 
34097581972 111 39 19 39 19 21 19 19 19 19 26 19 19 19 19 19 25 19 19 45 19 19 19 19 
34097576489 152 42 30 95 60 96 100 96 60 91 60 95 60 96 100 66 60 60 60 60 30 60 60 60 
34097571006 141 85 19 85 49 73 49 104 89 85 49 49 49 19 49 49 19 49 49 49 49 49 19 49 
34097566718 141 19 19 19 19 47 19 19 48 49 59 37 59 19 29 19 370 24 29 20 29 19 230 19 
34097565523 111 55 19 55 19 19 19 19 19 85 19 19 19 19 19 19 19 19 19 19 19 19 19 19 
34097561235 111 19 19 57 20 58 29 39 29 24 29 30 29 65 29 19 59 19 70 19 67 19 80 19 
34097555752 341 77 89 67 89 108 89 78 89 77 89 63 89 49 111 55 90 49 99 49 99 49 129 55 
34097551464 372 68 140 49 74 49 75 60 61 100 74 49 104 49 75 60 49 49 60 49 93 49 60 49 
34097550269 151 49 59 89 59 61 59 19 72 19 51 19 90 49 99 49 99 49 299 19 69 19 19 49 
34097545981 111 49 49 49 49 49 49 49 86 19 19 49 49 19 19 49 49 49 19 49 19 19 49 19 
34097540498 158 49 67 49 55 89 49 49 71 49 49 49 49 49 49 49 49 49 19 49 49 49 49 49 
34097727622 141 49 49 49 19 49 49 19 49 49 19 49 19 19 49 19 19 49 49 30 49 68 49 23 
34097726357 141 49 19 19 19 49 19 49 19 20 19 49 19 19 19 19 19 19 49 19 57 19 19 19 
34097721648 391 49 129 49 86 49 85 89 85 49 85 49 86 49 85 89 85 49 49 49 49 49 49 49 
34097717360 358 49 90 49 120 49 90 49 90 79 109 82 102 91 151 130 259 130 120 130 138 100 49 130 
34097716165 141 19 88 37 19 49 52 19 19 19 84 19 19 19 19 19 19 19 19 19 19 19 219 49 
34097711877 141 49 79 19 19 19 27 41 19 20 85 59 91 59 50 59 42 128 19 59 19 78 19 78 
34097706394 141 49 78 68 49 49 49 76 20 89 49 89 54 89 49 89 49 171 49 111 49 120 51 129 
34097702106 117 69 19 69 19 269 49 19 19 19 19 19 19 26 19 19 19 225 29 20 49 49 49 49 
34097700911 224 60 103 91 120 130 108 130 102 70 96 130 90 100 60 130 87 259 90 170 97 140 49 140 
34097696623 133 39 19 39 49 19 19 52 46 19 19 19 37 19 19 26 19 219 19 22 19 49 49 19 
34097691140 152 49 60 49 60 55 60 55 60 55 60 49 60 55 100 55 60 60 60 78 60 60 60 60 
34097685657 111 26 19 19 19 22 59 19 29 19 29 19 19 48 19 19 19 128 19 19 19 19 19 28 
34097681369 111 19 19 49 19 59 38 64 78 54 29 19 59 19 59 67 170 79 72 24 81 19 60 19 
34097680174 111 19 19 19 19 19 20 19 19 19 19 21 19 19 19 19 19 330 19 19 19 19 19 19 
34097675886 165 73 82 63 91 72 100 99 100 84 100 90 100 95 100 49 119 49 70 49 97 32 110 49 
34097670403 111 19 59 43 29 61 59 49 29 19 29 49 29 19 229 19 60 19 39 19 39 49 69 19 
34097666115 232 57 140 30 96 60 86 30 55 60 96 60 96 60 56 30 19 60 60 60 60 30 30 60 
34097664920 351 31 59 19 29 49 29 43 59 24 59 19 30 19 69 19 39 19 69 19 39 219 19 19 
34097660632 432 49 49 59 49 49 55 49 49 49 49 59 49 49 49 49 49 49 59 49 59 49 49 49 49 
34097655149 141 19 49 19 49 59 49 49 49 49 49 49 59 49 89 49 49 49 88 49 54 49 79 49 49 
34097649666 116 30 24 30 49 30 19 30 30 30 30 30 60 30 30 30 30 30 30 30 30 60 30 30 30 
34097645378 141 49 49 46 50 59 37 59 20 89 49 59 49 89 44 89 49 60 19 99 19 99 44 69 49 
34097644183 111 19 20 19 19 19 19 19 19 19 19 19 19 19 19 19 19 19 19 19 30 19 42 19 230 
34097639895 111 59 79 29 19 59 49 59 49 59 49 59 49 89 49 99 49 168 49 69 57 129 49 69 49 
34097634412 153 100 90 100 55 100 60 119 49 119 49 129 49 110 49 110 86 209 75 49 49 44 60 148 49 
34097630124 141 96 49 66 19 67 19 65 79 96 19 66 19 19 49 78 19 19 49 49 49 49 49 55 19 
34097628929 111 29 19 59 19 29 42 60 19 39 19 39 19 69 19 39 19 168 19 19 19 19 19 19 59 
34097624641 131 30 30 30 30 30 30 19 230 30 30 38 30 30 30 30 30 30 30 30 30 39 30 30 30 
34097619158 141 86 78 49 67 94 49 49 49 49 49 55 49 89 19 49 49 49 49 49 49 49 49 49 50 
34097613675 121 34 19 49 19 19 19 19 19 19 19 19 19 19 19 19 219 19 19 19 20 49 59 49 59 
34097609387 181 72 59 49 59 49 59 58 89 55 92 49 71 49 80 49 191 50 110 49 110 49 49 49 82 
34097608192 322 30 60 60 60 60 60 60 60 30 60 60 60 59 79 60 90 60 87 61 100 90 100 60 100 
34097603904 321 19 29 19 72 19 59 19 90 19 69 29 391 19 69 49 69 19 19 19 27 29 44 19 79 
34097598421 181 49 78 49 89 49 59 54 69 54 69 49 99 49 39 49 49 49 49 49 65 49 61 86 55 
34097594133 177 49 73 49 64 49 19 19 49 49 19 49 19 19 49 19 19 19 19 19 25 62 91 41 19 
34097592938 214 49 101 49 110 49 110 80 140 49 110 49 49 49 62 49 74 169 74 77 105 60 98 60 193 
34097588650 159 49 105 19 19 19 19 19 49 49 19 19 19 49 49 49 19 49 19 68 80 49 49 59 75 
34097583167 122 30 30 30 230 30 30 30 30 30 30 30 30 30 39 30 30 30 30 30 30 40 30 40 230 
34097577684 151 19 19 19 19 19 19 19 19 19 19 19 19 19 19 20 49 128 49 29 19 29 19 229 19 
34097573396 164 70 60 119 30 119 97 99 49 140 49 140 60 140 67 60 60 55 60 85 60 60 60 49 60 
34097572201 111 19 19 19 19 19 19 19 19 38 49 49 19 59 67 59 49 170 49 59 19 59 49 78 219 
34097567913 150 92 19 101 25 80 25 110 19 110 19 110 19 110 49 69 78 19 79 19 49 55 19 32 19 
34097562430 141 129 19 99 19 129 49 129 49 129 19 81 25 44 59 85 49 49 49 56 49 49 59 189 49 
34097558142 111 19 19 30 19 30 19 19 19 30 219 30 19 30 19 30 330 30 22 30 31 30 40 242 40 
34097556947 161 39 19 69 49 19 19 19 19 19 19 19 19 252 19 19 19 19 19 19 19 19 19 29 19 
34097552659 141 49 49 49 49 49 19 19 49 58 19 49 32 19 41 19 20 19 59 19 59 20 59 42 29 
34097547176 311 49 49 19 19 19 19 19 49 49 38 19 49 67 76 79 59 179 59 79 89 49 59 19 102 
34097541693 152 60 60 60 60 60 60 60 60 60 61 60 70 60 70 60 70 101 70 60 70 60 89 84 70 
34097537405 181 80 116 85 129 49 129 49 99 49 99 49 91 66 67 49 49 49 66 49 96 89 91 49 49 
34097536210 141 49 62 49 71 90 80 60 89 60 89 60 89 90 89 65 59 159 89 49 119 86 99 49 110 
34097718555 181 77 89 49 102 58 111 49 120 49 129 49 129 49 129 49 129 49 49 49 260 49 55 49 80 
34097713072 321 19 48 19 59 19 56 19 69 19 39 19 39 19 69 19 26 19 19 25 19 19 43 19 91 
34097708784 336 89 85 49 64 49 49 49 49 49 49 49 49 49 49 49 49 49 49 49 55 62 91 71 79 
34097707589 214 60 131 60 140 60 140 91 140 60 110 60 72 60 114 60 60 60 96 60 97 60 125 60 174 
34097703301 159 25 45 49 19 19 49 19 19 49 19 49 49 19 49 49 49 49 19 38 79 79 49 59 61 
34097697818 162 30 30 60 30 60 60 60 30 30 30 60 60 30 60 49 30 178 42 59 102 100 30 40 30 
34097692335 121 19 29 219 19 19 59 19 19 19 49 19 37 19 30 50 19 128 19 59 37 59 49 59 19 
34097688047 111 59 26 78 19 78 55 58 19 129 49 129 49 99 19 49 49 19 49 59 49 36 49 52 56 
34097686852 111 19 19 19 19 19 19 19 19 19 19 19 19 29 19 229 48 140 19 29 19 29 19 229 19 
34097682564 111 40 219 71 19 50 19 50 19 80 19 50 19 80 19 19 19 19 30 19 30 19 30 19 19 
34097677081 111 39 19 39 19 69 19 69 19 39 219 19 19 49 19 25 19 19 49 19 19 19 19 49 19 
34097672793 122 19 19 30 19 30 19 30 19 30 19 30 19 30 19 30 160 30 52 31 61 60 70 19 70 
34097671598 111 99 49 39 49 19 49 58 49 73 19 49 49 97 49 49 89 60 49 49 49 49 49 49 49 
34097667310 111 19 19 29 19 29 19 19 19 19 19 19 19 19 19 19 20 330 59 31 59 62 59 91 59 
34097661827 111 19 49 49 49 49 49 58 19 49 49 49 49 49 246 49 59 19 59 49 59 77 59 49 42 49 
34097656344 322 30 30 30 30 30 30 67 82 31 31 30 40 30 70 102 40 130 40 30 40 96 59 32 70 30 
34097652056 321 19 29 19 69 19 39 19 39 19 69 19 26 155 19 19 41 219 19 19 19 49 26 19 19 49 
34097650861 111 59 32 19 19 272 50 30 59 60 59 60 59 31 59 66 59 206 59 49 29 19 39 19 50 49 
34097646573 221 49 69 91 129 49 129 19 95 49 95 55 126 89 126 49 49 49 65 49 106 49 96 49 49 49 
34097641090 172 49 110 19 49 49 49 60 74 30 75 60 19 62 104 60 74 60 49 19 36 19 60 49 60 19 
34097636802 111 49 19 19 49 19 19 19 49 19 49 68 19 19 25 19 31 59 19 89 19 29 37 29 19 42 
34097635607 221 49 49 49 49 49 54 49 49 86 73 49 49 49 49 49 52 49 49 49 49 49 49 49 49 49 
34097631319 152 49 60 49 90 19 60 73 79 52 30 91 60 70 99 100 260 199 76 70 95 70 19 70 19 100 
34097625836 121 19 19 19 19 19 19 19 19 29 19 29 31 29 31 29 22 128 31 29 19 29 19 30 19 39 
34097620353 111 19 49 49 49 48 79 59 49 59 49 29 49 59 254 59 49 150 49 30 49 99 49 69 19 269 
34097616065 141 140 49 110 55 80 49 56 49 49 49 56 89 56 49 56 19 49 89 56 49 49 49 49 49 49 
34097614870 170 31 72 70 77 70 30 70 60 70 30 40 60 89 22 70 30 378 66 140 260 110 19 140 30 110 
34097610582 111 49 19 25 49 43 19 19 19 71 19 55 49 55 49 19 49 19 19 49 49 79 19 19 49 49 
34097605099 141 91 49 81 49 49 89 91 49 96 49 86 49 80 49 49 49 49 49 49 49 49 49 49 49 49 
34097600811 111 49 19 58 19 19 38 19 49 19 246 21 59 37 59 25 170 25 59 19 59 19 59 19 60 19 
34097599616 322 49 60 74 60 49 49 49 49 49 49 79 49 60 49 60 49 60 49 52 49 60 49 60 49 60 
34097595328 311 49 68 49 71 79 80 79 59 114 59 49 89 114 89 19 89 49 108 55 59 66 99 49 69 65 
34097589845 114 42 31 30 270 60 40 90 70 91 40 30 100 95 40 49 70 49 70 31 80 19 80 32 50 27 
34097584362 111 19 29 19 29 19 29 61 29 195 29 53 29 19 30 19 39 19 39 19 39 19 39 19 39 19 
34097580074 122 230 30 30 30 30 24 31 30 60 30 40 19 30 19 30 30 30 39 30 30 30 30 30 30 30 
34097578879 321 19 29 19 59 19 29 19 29 19 29 19 39 19 39 19 39 19 39 19 39 19 19 19 19 19 
34097574591 147 49 73 49 85 89 85 49 80 49 49 49 55 49 49 49 49 49 49 49 49 49 49 49 49 49 
34097569108 141 19 49 19 24 19 49 19 40 19 19 19 49 19 19 49 19 19 19 49 19 19 19 19 49 19 
34097564820 111 38 37 49 49 89 30 89 90 59 30 59 39 89 60 59 19 92 55 71 19 80 19 80 19 80 
34097563625 141 49 49 49 49 49 49 49 49 49 49 49 49 49 79 49 49 49 19 49 49 68 49 79 79 49 
34097559337 111 19 19 29 173 29 19 29 19 29 19 29 26 29 19 30 241 138 19 39 19 39 19 39 19 19 
34097553854 111 29 37 29 219 29 19 29 19 48 19 59 19 56 19 69 19 368 19 99 31 69 19 154 19 31 
34097548371 152 100 69 70 90 70 49 100 19 71 49 50 49 80 19 80 49 209 19 19 49 78 48 74 22 61 
34097544083 141 49 89 66 49 49 49 32 49 82 49 79 49 19 49 49 49 49 49 49 49 49 19 49 49 49 
34097542888 311 102 88 111 49 120 49 129 49 129 86 129 49 129 49 49 49 49 89 90 49 86 88 84 49 85 
34097538600 322 56 30 30 30 75 30 30 60 30 30 60 60 30 30 60 30 30 60 30 30 30 60 30 49 36 
34097728395 111 19 19 19 219 19 19 19 49 19 19 19 19 19 19 19 19 19 19 19 19 19 19 19 27 19 
34097719750 111 96 49 94 19 49 89 96 49 96 19 56 49 105 19 49 49 49 19 49 49 49 49 49 49 49 
34097715462 141 19 49 49 19 49 38 49 79 49 19 19 89 19 59 91 370 24 29 49 102 54 81 49 120 19 
34097714267 162 49 24 44 19 19 30 19 70 244 19 70 19 30 19 30 19 30 19 60 19 30 19 30 19 30 
34097709979 141 49 68 49 71 50 80 79 89 49 89 49 89 50 89 49 89 49 108 49 119 49 129 86 129 49 
34097704496 344 90 91 60 100 60 100 61 100 60 100 60 100 60 119 60 89 49 129 95 140 87 140 66 140 97 
34097699013 138 60 59 61 59 90 59 60 259 19 59 49 62 19 71 19 80 19 110 21 80 19 80 19 110 19 
34097694725 152 30 60 30 43 60 60 61 60 65 60 30 60 60 49 60 60 30 30 30 60 60 30 60 60 60 
34097693530 121 19 29 19 29 19 29 27 29 19 29 19 69 19 39 19 39 19 39 19 69 19 19 19 19 219 
34097689242 459 49 25 19 25 19 19 19 203 19 19 19 225 19 19 19 19 19 19 19 19 19 19 19 19 19 
34097683759 111 19 19 20 19 24 19 19 19 19 19 19 19 19 19 19 19 19 19 19 19 19 28 19 19 19 
34097679471 122 49 89 60 41 40 54 70 30 40 60 40 49 40 36 40 19 40 49 41 49 50 19 80 49 80 
34097678276 111 19 19 19 19 19 219 19 28 19 19 19 19 19 19 19 19 19 20 19 19 19 19 19 19 19 
34097673988 111 19 19 29 31 29 19 29 19 29 31 29 20 29 19 30 19 138 219 39 19 39 19 39 19 19 
34097668505 141 59 19 29 19 59 24 59 49 29 19 59 19 59 49 39 49 138 41 39 19 39 19 86 59 19 
34097663022 152 40 69 40 60 70 30 70 30 101 30 80 30 50 30 50 24 349 30 30 30 33 30 30 30 30 30 
34097658734 117 49 19 19 19 49 49 26 25 59 19 19 19 22 19 50 19 19 19 19 19 19 19 19 219 19 49 
34097657539 182 113 49 92 49 131 49 110 74 110 62 110 19 110 19 49 49 49 19 55 49 63 49 43 49 85 89 
34097653251 122 228 30 30 30 19 30 30 30 30 30 30 30 30 30 30 230 130 30 30 30 30 30 30 30 30 30 
34097647768 311 56 19 19 19 19 19 19 19 19 19 19 19 19 19 19 19 55 19 225 19 22 50 19 29 19 29 
34097643480 321 19 29 19 29 219 59 31 29 213 29 19 59 73 229 19 150 84 39 19 69 79 19 19 19 219 19 
34097642285 111 19 19 19 19 50 19 19 19 19 19 19 19 19 19 19 38 19 49 19 29 19 29 20 29 19 29 
34097637997 192 60 100 60 100 49 113 73 100 73 101 49 110 49 110 57 140 49 140 49 140 49 74 60 75 90 58 
34097632514 181 49 89 85 108 79 119 49 129 86 129 84 129 71 129 49 99 49 86 49 74 89 85 49 85 49 86 
34097627031 121 76 59 19 29 19 39 19 69 19 39 49 19 19 19 19 19 19 19 19 19 219 49 19 19 19 49 
34097622743 111 244 55 19 25 19 19 19 49 19 19 19 19 19 19 19 160 19 19 32 38 41 49 50 91 59 61 
34097621548 133 30 80 30 80 19 80 30 50 30 50 30 38 30 22 30 30 144 30 30 30 30 19 30 33 30 30 
34097617260 141 49 49 49 49 49 49 49 49 49 53 49 49 49 49 49 49 49 61 49 49 76 49 89 49 59 49 
[...]
34097671035 178 88 49 129 49 129 49 99 56 49 49 49 49 101 49 49 74 49 49 49 66 49 91 49 67 49 49 49 49 49 49 102 49 222 49 120 49 129 49 129 185 129 49 129 49 129 49 66 49 97 49 85 49 66 49 66 49 
34097675323 122 30 30 30 30 30 30 30 218 61 30 70 30 40 30 46 40 42 70 64 40 30 70 19 59 30 40 30 280 30 19 60 30 30 19 30 30 30 30 30 60 30 48 30 47 70 31 40 90 70 71 70 47 70 30 89 30 172 
34097676518 141 89 49 89 49 99 86 99 19 69 49 99 19 269 19 49 49 19 49 59 49 49 49 49 19 49 19 49 49 49 19 59 19 59 19 59 49 59 49 29 49 69 46 39 49 69 49 49 49 49 49 49 49 19 49 71 49 
34097680806 111 19 19 19 20 19 19 19 28 19 19 19 19 19 23 19 29 318 29 24 29 19 29 24 29 19 29 26 39 19 39 19 19 19 19 19 20 19 19 19 54 19 19 19 19 19 19 220 205 29 19 29 19 29 20 29 24 19 
34097686289 111 19 19 19 29 19 29 19 29 19 19 19 19 219 22 31 19 19 19 31 29 31 29 31 29 31 29 19 239 19 39 19 19 19 19 19 22 19 22 19 23 19 19 219 29 19 19 19 19 19 19 19 61 29 31 29 19 
34097691772 141 49 30 19 60 49 60 49 30 19 30 49 30 19 30 59 43 30 82 30 61 103 70 60 40 30 100 62 89 49 99 19 19 30 22 19 60 19 63 49 30 49 60 19 30 49 60 19 60 49 49 49 90 60 19 70 84 
34097696060 151 19 39 19 39 19 239 19 39 19 21 19 19 19 19 19 19 19 19 19 19 56 219 27 19 19 19 19 19 50 19 19 29 19 329 19 69 19 39 19 39 19 39 19 19 219 19 19 19 19 19 19 19 20 24 19 19 19 
34097697255 111 19 19 19 19 19 19 19 19 19 22 19 219 19 220 19 19 19 19 19 19 61 19 19 220 19 29 50 29 19 29 219 19 19 19 19 66 19 19 19 59 19 29 219 19 19 20 49 19 19 49 19 19 19 19 19 329 
34097701543 214 49 101 49 140 50 110 80 140 49 140 49 49 49 86 85 49 49 57 49 79 49 59 203 49 55 51 49 49 49 49 49 89 49 218 49 130 80 97 49 140 62 140 49 140 80 140 49 104 49 67 49 73 49 85 49 49 
34097707026 192 36 119 60 92 30 131 60 140 60 140 66 140 60 140 140 30 30 60 66 70 55 60 154 30 86 60 60 60 60 60 30 70 213 100 60 83 19 122 60 131 60 140 31 110 60 140 60 110 60 60 60 55 70 96 60 85 
34097711314 141 49 49 49 49 49 49 49 49 49 32 62 41 90 80 79 60 200 60 89 49 89 72 89 60 89 88 140 49 140 49 88 49 49 49 49 49 49 49 49 49 56 49 49 49 59 68 72 79 60 76 19 89 72 89 49 89 19 
34097712509 321 79 59 19 29 49 48 19 59 49 86 73 69 19 69 99 19 69 19 99 19 43 19 19 49 19 49 66 19 19 19 67 59 49 59 19 59 19 59 79 48 19 51 19 120 49 99 19 99 19 99 19 69 19 219 19 65 
34097716797 122 30 30 30 30 30 30 30 30 230 30 30 30 30 30 43 55 151 60 31 54 70 30 70 30 100 52 100 64 97 25 55 70 36 30 30 60 59 30 19 30 30 30 30 30 48 30 30 243 38 52 30 31 60 70 90 40 19 
34097535503 60 70 60 
34097722280 311 19 19 49 19 19 49 19 19 19 19 19 19 19 19 19 19 19 19 38 219 38 48 48 19 59 31 102 19 81 19 66 19 72 19 19 19 377 19 19 19 19 19 19 19 19 19 49 19 19 49 19 38 19 41 19 50 
34097654586 111 49 19 19 19 19 49 19 19 19 19 49 49 19 19 49 19 19 19 19 19 19 19 49 19 19 19 19 20 19 69 19 39 49 69 49 19 19 49 49 19 49 49 49 49 19 49 19 34 19 19 19 19 49 58 19 19 
34097658874 151 28 59 37 59 49 59 84 59 19 78 19 59 19 19 59 66 198 19 69 23 99 24 69 19 19 19 26 25 25 38 37 49 19 59 64 59 49 59 79 59 19 59 49 59 19 59 24 60 24 69 19 69 19 69 24 69 
34097664357 130 43 48 49 59 79 59 58 59 366 59 84 72 49 19 78 19 188 19 99 49 99 49 99 19 99 19 19 19 225 19 19 32 22 41 79 50 401 59 25 59 43 59 79 59 114 59 19 78 19 89 19 86 44 99 219 99 
34097669840 311 19 19 19 19 19 29 19 29 19 29 19 29 19 30 29 19 29 19 32 19 41 19 50 19 50 29 19 19 19 19 19 19 19 19 19 19 19 19 19 19 19 29 19 29 19 29 19 29 19 29 19 32 19 41 19 50 
34097674128 311 19 25 19 19 19 19 23 19 19 19 19 19 19 19 19 19 19 19 19 20 19 19 19 28 19 19 29 19 29 19 19 19 19 19 19 19 19 19 19 19 19 25 19 19 19 19 28 19 24 19 19 19 19 19 19 19 19 
34097685094 111 19 19 19 30 19 30 19 31 19 30 19 35 19 19 30 19 19 22 19 30 19 30 19 30 19 30 19 29 19 19 50 19 161 19 50 19 19 30 19 34 19 30 19 30 19 30 19 30 19 60 19 19 40 19 30 19 
34097689382 111 76 49 59 37 29 19 59 19 89 19 59 49 29 29 49 30 60 39 49 69 19 39 20 39 49 19 49 19 19 19 19 19 19 454 20 19 29 19 29 19 29 191 59 24 29 219 59 19 59 49 39 19 39 49 39 19 19 
34097690577 141 99 66 99 49 49 19 95 55 96 19 96 49 72 81 49 19 49 66 49 89 49 49 19 19 49 19 49 19 49 59 99 19 228 49 99 19 99 59 49 19 66 49 90 36 85 58 35 67 85 49 55 49 19 49 19 159 
34097694865 160 71 132 80 124 89 120 89 120 89 60 89 132 89 89 58 119 49 122 49 131 49 140 49 140 49 50 49 49 89 49 49 89 49 158 68 119 79 61 76 120 89 121 59 120 59 88 59 49 113 54 92 49 71 85 110 49 
34097704636 166 59 85 49 85 49 86 49 74 89 85 49 49 49 49 58 49 49 49 49 49 49 49 49 49 49 80 65 89 90 49 19 74 89 79 49 80 78 86 49 74 89 85 49 85 55 19 49 49 19 19 49 49 49 49 49 49 159 
34097705831 111 19 49 49 49 19 48 49 49 49 19 46 50 59 89 61 170 49 59 49 59 49 102 91 81 50 129 19 99 69 49 19 49 19 19 49 49 49 19 49 49 68 49 71 50 80 79 89 79 89 19 89 50 89 49 89 49 
34097710119 202 60 96 60 86 66 55 70 96 60 126 60 86 60 60 45 60 30 60 60 60 60 60 60 60 60 79 30 90 60 140 57 140 60 239 60 81 60 85 100 200 60 96 60 56 60 85 100 96 30 60 60 30 60 60 60 60 49 
34097715602 191 62 49 49 88 49 49 19 96 49 67 49 49 89 89 49 49 49 49 49 49 79 49 49 49 49 49 49 49 49 69 19 129 49 228 19 129 76 99 49 195 19 67 55 49 89 80 19 68 49 67 49 75 49 49 49 19 
34097721085 221 49 129 49 129 49 129 49 86 20 74 59 85 49 66 86 53 49 49 85 89 80 89 49 19 55 49 49 49 49 78 86 118 49 99 76 99 49 99 56 49 49 85 49 85 55 85 49 56 49 79 19 85 49 85 49 49 
34097536698 49 86 19 
34097723475 141 49 49 49 49 49 49 49 49 49 49 49 49 49 49 49 49 49 49 49 49 49 49 49 49 49 49 49 49 19 19 49 19 19 49 49 49 49 49 19 49 49 19 49 49 49 49 49 19 19 19 49 49 49 49 49 49 19 
34097657679 141 19 49 49 19 19 49 49 49 19 66 19 49 49 19 19 68 52 49 19 89 49 59 19 89 19 51 19 90 29 55 49 19 19 49 49 49 49 19 19 49 49 79 49 49 49 49 19 19 38 49 49 19 49 81 29 37 
34097661967 172 30 80 30 50 38 60 30 60 60 60 33 30 55 30 30 60 30 30 54 40 30 60 19 60 30 30 60 30 44 62 49 71 30 149 30 110 26 280 48 110 153 50 60 43 30 22 30 30 30 84 60 54 30 52 30 19 340 
34097663162 141 23 19 19 29 19 19 19 49 19 19 19 19 19 19 19 19 19 19 19 19 19 20 19 229 19 29 19 29 19 19 29 29 19 19 19 26 19 19 19 19 19 19 19 19 19 19 19 19 19 19 19 19 19 42 20 30 
34097667450 151 43 99 32 69 19 39 49 39 49 69 19 60 45 37 19 37 19 71 19 38 125 19 19 49 49 49 19 19 31 59 48 59 58 29 62 89 42 69 19 69 43 69 32 19 19 19 19 88 19 66 19 41 220 19 19 96 115 
34097672933 121 19 29 19 30 19 39 19 39 19 39 19 39 39 19 39 19 19 19 19 19 19 29 19 19 19 19 28 19 19 29 19 29 40 29 19 29 19 29 19 39 19 39 19 39 19 39 19 39 19 19 19 19 29 19 19 19 
34097678416 362 60 70 60 100 49 70 49 100 49 110 49 80 80 49 80 49 49 49 280 49 49 60 49 91 49 62 49 49 60 70 91 70 75 70 60 100 49 70 49 70 57 71 49 80 49 80 49 80 49 80 49 80 49 63 60 58 
34097682704 311 19 19 49 19 19 19 29 19 19 49 19 19 19 19 49 19 119 31 29 49 29 61 29 31 29 19 59 19 211 19 22 19 19 19 19 19 19 19 29 19 29 19 29 19 19 19 19 19 19 19 19 229 19 29 31 59 141 
34097683899 121 23 29 19 29 19 29 19 29 19 29 19 39 29 22 39 19 39 19 39 19 19 19 33 19 19 24 19 19 31 20 19 29 22 29 19 29 20 29 19 29 24 29 19 29 19 29 19 39 19 39 19 39 19 19 19 128 
34097688187 111 30 19 30 19 30 19 230 19 30 19 30 19 19 30 19 19 19 19 22 19 31 242 40 19 40 19 59 19 19 219 19 19 19 19 19 19 30 19 30 19 260 19 30 19 30 19 30 19 30 19 60 22 19 31 30 40 
34097693670 111 82 19 33 49 19 19 59 19 20 49 219 19 19 49 19 19 19 19 49 58 19 47 49 91 89 49 89 19 66 19 49 19 19 19 19 51 66 19 38 19 49 19 19 19 19 19 49 19 50 19 49 49 19 49 49 19 
34097697958 111 262 25 71 49 80 19 80 49 80 19 50 19 19 19 19 19 219 19 19 19 19 19 49 19 19 29 19 49 59 19 29 49 53 21 32 49 71 19 80 49 80 19 50 19 80 19 49 49 19 29 19 49 49 19 25 19 129 
34097699153 141 19 19 80 19 19 19 19 49 19 19 49 19 19 19 49 31 19 19 19 49 19 19 19 19 89 19 59 47 49 19 56 19 49 19 49 49 19 49 71 19 49 19 19 19 19 19 19 19 19 219 49 19 19 49 19 19 
34097703441 182 70 60 89 49 70 60 70 96 80 63 110 58 60 110 99 140 60 84 60 82 60 60 60 84 60 60 60 60 70 60 70 60 270 60 70 60 89 60 100 60 71 60 110 60 140 91 80 60 80 60 72 60 120 60 84 100 19 
34097708924 141 89 49 89 49 72 49 111 49 90 49 129 49 49 99 49 129 49 129 49 129 49 96 49 96 49 49 49 75 80 91 89 66 89 360 89 49 89 88 89 49 108 49 119 50 116 49 129 49 129 49 129 50 129 49 96 49 
34097714407 141 89 49 89 19 29 49 29 61 59 57 59 19 55 60 49 69 49 69 85 69 49 69 49 49 49 49 49 49 68 49 68 78 49 49 59 49 89 49 59 61 89 49 59 49 59 19 90 49 69 49 99 49 69 49 69 49 
34097718695 114 59 64 49 49 49 49 19 49 49 49 49 49 49 49 49 49 49 49 49 19 79 19 49 59 49 59 49 108 49 95 49 73 49 19 49 49 49 49 49 49 49 49 49 19 49 49 19 19 49 49 49 78 49 224 49 19 359 
34097719890 152 91 90 100 49 100 90 100 60 100 60 100 49 49 100 76 211 71 100 49 110 75 140 49 140 100 74 60 104 49 60 49 60 79 55 90 57 100 108 100 60 100 60 100 49 100 90 100 49 122 49 101 49 140 49 140 190 
34097724740 179 29 49 59 60 59 50 59 49 59 49 48 19 87 59 19 60 19 99 49 69 49 39 19 19 19 49 49 49 35 27 49 27 20 19 29 19 89 19 59 57 59 19 59 19 30 219 59 19 59 49 99 19 69 19 69 19 
34097726005 132 86 40 30 40 53 40 30 40 30 41 30 240 61 30 67 230 80 30 50 30 50 30 30 30 60 30 30 60 30 30 30 30 30 40 30 40 30 240 54 40 31 40 30 40 30 40 30 240 30 80 40 50 30 50 30 30 
34097654094 111 249 19 19 19 25 19 49 19 49 19 19 50 219 19 62 33 340 19 50 49 29 19 59 19 29 49 49 20 19 49 22 19 19 19 49 19 49 49 19 19 19 19 19 19 49 49 29 49 49 19 19 20 19 59 19 59 19 
34097552306 221 49 49 129 50 129 49 89 73 59 99 59 49 59 31 89 49 158 66 89 68 89 49 59 49 59 49 59 19 89 49 56 49 99 19 69 75 69 50 39 49 40 49 49 50 99 86 129 49 99 49 19 49 96 37 49 19 
34098922004 208 
34097655289 181 29 19 59 26 29 19 229 43 72 19 29 48 55 59 75 69 49 69 49 39 31 39 53 49 49 19 19 19 62 19 19 76 50 178 29 36 59 43 59 65 89 54 29 19 48 49 89 19 86 19 269 30 69 19 69 19 19 
34097656484 141 110 49 110 49 25 19 26 19 19 19 55 55 19 55 49 19 49 20 19 19 19 49 19 19 19 19 19 19 110 86 110 19 451 49 80 19 80 19 26 25 44 59 56 19 56 19 19 79 19 89 44 19 79 19 89 49 
34097660772 111 49 49 29 49 29 19 29 49 29 19 29 29 49 59 19 51 19 30 19 69 19 39 19 19 219 49 19 20 19 19 19 50 19 431 19 49 19 37 29 19 29 36 29 19 29 54 42 19 51 19 60 19 69 19 69 19 21 
34097666255 147 19 102 71 55 80 60 89 19 89 95 29 89 60 89 61 89 49 89 49 89 49 99 49 140 49 86 49 49 49 49 49 49 49 49 49 49 68 60 79 49 89 72 89 60 59 60 89 49 89 49 119 50 122 49 101 49 
34097671738 122 30 60 60 30 79 58 30 61 60 100 100 70 60 40 30 70 189 70 60 70 60 89 49 110 19 140 49 60 60 60 60 60 60 60 60 60 30 60 73 60 60 102 91 90 70 60 100 78 100 30 70 125 100 60 119 49 
34097676026 147 19 55 49 56 19 54 19 85 19 55 19 19 49 19 19 49 49 49 19 49 19 19 49 38 37 38 19 99 19 69 19 129 19 49 19 55 58 24 19 60 19 55 19 55 19 19 19 34 19 19 19 219 49 79 19 19 159 
34097677221 111 19 19 19 49 19 19 19 19 19 49 19 19 20 19 249 140 53 29 29 29 50 29 31 39 49 39 19 19 19 50 19 49 19 19 19 19 49 19 49 19 19 28 19 19 19 19 19 19 29 19 29 19 29 37 29 164 
34097681509 172 19 20 19 32 30 27 52 27 19 32 30 30 19 40 19 19 139 19 31 19 30 19 60 19 30 19 30 80 19 50 219 80 19 149 19 19 19 19 70 26 30 19 30 213 20 19 30 31 30 19 19 30 19 30 19 30 
34097686992 331 19 39 19 39 19 37 19 19 20 19 19 19 19 19 19 19 19 19 19 19 19 19 19 19 20 19 19 221 19 30 19 39 19 39 19 39 19 39 19 19 19 33 19 19 19 19 29 19 20 33 19 33 19 19 19 19 
34097691280 311 19 49 19 20 30 59 49 29 49 29 30 19 29 49 29 19 170 19 70 19 67 19 280 19 32 19 32 19 19 19 219 19 19 19 19 19 30 20 19 29 19 29 19 29 30 29 19 29 19 59 19 59 33 69 19 80 19 
34097692475 131 19 39 219 69 19 69 19 19 19 49 29 19 19 22 49 19 19 29 19 49 19 19 19 19 219 19 19 29 19 29 19 229 49 29 19 239 19 39 49 39 19 39 19 19 19 19 19 24 19 19 59 219 19 19 49 19 
34097696763 111 19 19 19 19 48 19 79 19 49 59 19 19 59 19 59 49 158 19 42 19 59 19 60 40 39 30 35 19 25 19 19 19 19 19 19 19 19 38 53 41 41 250 20 29 19 59 49 59 19 29 131 29 31 370 19 89 19 
34097702246 111 19 19 49 49 58 62 19 71 49 50 19 73 59 61 59 19 358 49 59 19 29 24 59 19 269 49 39 19 47 49 49 49 19 19 19 49 19 19 49 49 19 19 19 19 19 46 20 89 19 29 19 29 19 29 49 42 
34097707729 141 49 49 49 49 49 49 49 49 49 38 49 60 71 89 80 72 188 60 89 30 89 49 89 49 127 80 140 89 85 49 49 19 49 49 49 49 49 49 49 49 49 49 49 62 68 71 78 80 120 59 60 89 61 89 90 89 
34097712017 141 129 79 99 49 67 49 49 67 73 49 66 66 49 35 71 80 188 49 49 49 49 49 49 19 49 49 49 56 89 49 69 49 99 19 129 49 49 49 19 89 96 55 96 49 71 49 49 86 96 49 118 49 49 19 49 49 19 
34097713212 182 90 90 90 90 90 90 90 90 90 90 90 90 90 90 60 93 90 124 119 107 130 60 100 125 152 60 161 90 115 90 49 90 46 90 120 60 90 90 66 90 60 60 120 90 90 90 90 109 60 112 60 121 91 130 102 240 
34097717500 117 99 19 99 72 39 19 99 49 49 19 71 49 49 19 49 49 49 49 58 19 19 52 49 19 49 49 19 19 29 19 29 49 69 19 99 19 69 19 69 19 99 49 19 19 19 49 19 19 55 19 56 49 55 19 19 49 
34097536206 49 19 49 49 49 19 
34097722983 167 99 74 110 44 110 49 110 33 19 19 31 140 19 63 30 75 30 73 30 104 100 79 30 60 49 30 19 30 100 19 83 63 203 19 71 49 110 19 80 144 110 49 110 49 140 19 74 19 50 36 31 60 19 19 44 49 
34097659577 141 19 19 19 19 19 19 19 19 19 19 19 19 19 29 19 29 19 19 19 19 19 19 29 19 29 30 59 29 19 19 19 29 28 19 19 19 19 19 19 19 19 19 25 19 29 19 19 19 19 19 19 19 19 19 19 220 
34097665060 152 125 60 63 60 75 60 49 60 60 60 60 60 60 60 60 60 60 60 60 60 60 60 70 108 70 60 73 60 90 60 101 60 60 78 85 60 60 60 49 60 60 60 60 60 90 60 60 60 66 60 90 60 99 60 60 79 
34097670543 111 19 219 19 19 19 19 19 19 19 19 19 219 19 19 19 31 49 23 19 19 19 20 20 19 29 19 39 19 219 19 19 19 19 19 49 49 19 20 49 19 22 59 49 49 19 19 49 49 49 19 54 19 19 49 219 329 
34097674831 212 70 19 100 60 70 62 130 62 110 19 19 110 49 110 49 110 49 49 49 53 82 49 60 49 60 49 91 90 70 60 100 90 100 360 100 102 100 95 100 52 100 49 100 49 110 232 280 80 80 49 49 49 49 60 78 49 
34097680314 112 29 19 29 19 29 19 29 49 29 19 19 30 19 39 19 39 19 39 19 39 19 39 19 19 19 19 19 19 19 19 20 20 29 19 29 19 29 19 29 19 29 19 29 19 29 19 39 19 39 63 39 19 39 19 39 19 
34097684602 111 19 60 19 263 19 91 49 60 49 60 60 49 90 19 60 19 180 49 58 60 102 87 60 70 65 100 19 19 90 19 90 49 19 49 19 70 19 60 49 65 49 60 19 60 19 60 19 60 19 65 79 28 49 48 59 94 
34097685797 111 29 19 29 19 29 31 29 19 29 23 20 29 19 29 19 141 27 39 19 39 19 39 20 19 19 19 19 28 19 19 219 19 19 19 19 19 29 31 29 49 29 19 29 19 29 19 29 19 30 19 39 19 39 19 39 19 
34097695568 311 49 19 19 19 59 49 19 19 49 19 49 49 19 49 49 19 19 49 19 19 19 49 49 29 31 29 49 19 49 49 19 19 19 49 19 73 59 19 19 49 49 19 49 249 49 19 19 19 49 19 19 49 49 19 19 19 
34097701051 141 19 21 59 55 49 19 19 19 49 19 34 19 19 19 49 19 49 19 19 19 19 19 48 19 60 46 19 140 19 110 19 26 19 256 19 25 19 25 19 86 19 19 29 49 19 19 19 19 49 19 19 19 49 19 19 19 
34097705339 181 109 89 49 59 91 108 80 111 49 120 120 86 129 49 129 76 228 49 129 49 49 49 74 89 96 49 49 68 91 78 90 89 49 89 49 89 91 89 49 102 49 111 49 120 49 129 49 129 49 129 49 129 49 49 49 71 
34097706534 152 60 96 60 60 68 86 60 85 60 96 96 60 97 60 49 60 60 60 60 60 60 60 60 73 60 82 60 110 97 110 49 140 87 110 60 84 60 94 60 30 97 84 60 66 60 52 60 80 60 49 60 60 60 60 60 19 
34097710822 181 49 89 91 59 49 89 54 89 49 108 108 49 108 49 118 49 398 86 129 49 129 71 189 49 85 49 49 49 49 68 49 79 49 89 91 89 49 89 49 89 49 89 86 108 85 111 49 120 49 129 49 129 49 129 49 129 
34097716305 141 49 59 60 70 60 70 49 70 60 70 270 90 70 49 119 49 169 49 110 49 110 49 49 49 49 90 90 49 60 49 60 73 94 52 78 61 30 100 69 70 60 40 102 70 35 70 49 40 28 40 49 40 19 250 19 80 
34097721788 141 49 68 49 79 49 89 91 89 49 89 89 55 89 79 89 49 102 90 111 49 120 67 129 49 129 49 49 49 49 49 49 49 49 49 49 68 49 68 91 78 49 89 49 89 49 89 91 89 49 102 99 111 49 120 49 129 
34097662670 111 49 19 47 49 49 49 72 89 60 43 29 30 29 30 59 49 328 19 59 19 40 49 80 58 80 19 24 19 29 49 19 19 59 49 19 19 55 19 42 50 19 229 19 29 90 29 42 29 49 59 19 59 19 70 19 37 
34097663865 122 19 239 19 39 19 39 30 39 19 19 39 19 19 19 22 23 19 19 19 219 19 19 19 19 19 29 19 29 19 29 19 29 27 29 219 39 19 39 19 39 19 39 19 39 19 19 19 19 19 19 19 19 219 19 19 
34097668153 122 30 30 30 60 30 49 90 60 30 30 57 72 70 230 70 73 369 60 70 30 83 57 110 30 110 30 230 30 30 30 30 30 230 30 30 30 30 30 30 49 30 49 272 59 30 70 30 70 47 70 72 70 69 83 217 
34097673636 111 20 19 24 19 19 19 19 19 19 19 19 19 20 19 29 20 128 19 29 19 29 19 29 38 39 62 22 19 19 19 22 19 19 19 19 19 19 19 19 19 19 19 19 19 19 19 19 29 19 29 19 29 19 29 19 
34097677924 111 50 19 19 30 29 31 19 22 19 19 37 19 19 19 19 22 141 19 19 40 19 31 19 28 19 19 41 19 50 19 50 19 50 19 80 19 20 19 23 30 19 30 19 30 19 31 19 30 19 30 19 19 30 19 19 
34097679119 111 19 19 29 19 59 19 19 19 19 19 19 219 19 19 41 172 20 31 29 19 29 19 29 19 59 19 19 19 19 23 19 19 19 19 29 19 59 19 19 19 285 19 19 19 19 32 19 41 31 20 19 59 19 59 19 
34097683407 111 39 19 39 19 19 19 19 19 19 19 19 22 19 19 21 19 19 19 19 19 19 19 19 19 19 19 29 22 29 19 29 19 39 19 39 19 39 19 39 19 19 19 19 19 19 19 19 19 19 19 19 50 19 19 19 
34097688890 141 99 19 69 49 99 49 69 19 54 49 19 49 19 49 37 85 49 49 19 49 49 49 49 49 19 437 59 49 59 19 51 19 60 49 69 49 39 25 69 49 39 49 49 19 49 49 49 49 19 19 49 19 19 49 49 
34097694373 122 40 19 37 19 50 19 50 19 80 50 19 50 19 19 19 19 19 19 19 19 29 19 19 19 19 60 29 19 29 39 29 72 42 19 32 19 71 19 50 19 50 19 50 19 50 19 19 19 19 19 19 19 19 19 19 
34097698661 111 19 19 19 19 19 19 38 79 241 41 62 50 43 59 79 59 19 59 58 59 91 86 19 99 19 25 19 19 19 48 19 19 19 19 19 19 19 37 19 219 62 22 41 80 50 79 59 61 59 79 259 80 59 19 59 
34097699856 361 113 77 122 60 101 60 140 61 110 140 60 140 97 140 49 221 60 84 60 96 60 86 60 75 60 60 100 66 100 102 70 60 100 99 70 60 119 60 130 160 127 60 140 60 140 60 140 61 140 60 84 60 102 60 95 
34097704144 311 49 49 49 49 49 49 49 49 49 49 49 68 60 68 60 78 89 89 72 89 60 92 58 131 49 105 99 49 49 85 49 49 49 49 49 88 49 49 49 49 49 49 49 49 68 65 49 61 80 49 89 60 89 60 59 
34097709627 152 60 96 60 60 60 60 60 60 60 60 60 60 60 60 60 60 72 90 60 100 60 70 60 70 60 125 87 126 70 126 82 49 60 60 60 60 60 60 60 60 60 60 60 60 60 60 60 60 60 66 60 78 87 100 70 
34097713915 161 19 69 19 269 19 49 49 49 49 19 55 59 49 19 24 19 19 89 85 36 55 49 55 49 49 89 56 89 49 89 49 60 19 228 19 129 49 99 19 39 49 99 49 55 49 49 49 19 56 49 49 55 82 21 49 
34097715110 141 49 121 49 19 49 49 49 79 19 49 49 49 49 49 49 63 49 49 19 71 49 89 49 89 79 126 49 73 49 49 49 65 49 19 19 101 19 49 49 85 19 49 49 19 49 49 49 49 49 49 62 50 19 80 50 
STLBmisslatencies: 

DRAM Statistics
 CHANNEL 0
 RQ ROW_BUFFER_HIT:        681  ROW_BUFFER_MISS:     648248
 DBUS_CONGESTED:          4
 WQ ROW_BUFFER_HIT:     195950  ROW_BUFFER_MISS:     358350  FULL:          0

 AVG_CONGESTED_CYCLE: 6
 All warmup complete: 2
Channel 0 Bank busy for read cycles: 0
Channel 0 Bank busy for write cycles: 0
Channel 0
Rank 0
0banks busy for read cycles: 3021571
0banks busy for write cycles: 68353
1banks busy for read cycles: 21296781
1banks busy for write cycles: 5189053
2banks busy for read cycles: 14529140
2banks busy for write cycles: 7272673
3banks busy for read cycles: 11090473
3banks busy for write cycles: 10326265
4banks busy for read cycles: 3398813
4banks busy for write cycles: 8148042
5banks busy for read cycles: 9850
5banks busy for write cycles: 2883028
6banks busy for read cycles: 97
6banks busy for write cycles: 1111400
7banks busy for read cycles: 0
7banks busy for write cycles: 537507
8banks busy for read cycles: 0
8banks busy for write cycles: 433641

CPU 0 Branch Prediction Accuracy: 99.9685% MPKI: 0.04912 Average ROB Occupancy at Mispredict: 156.394
Branch types
NOT_BRANCH: 21105636 84.4225%
BRANCH_DIRECT_JUMP: 568310 2.27324%
BRANCH_INDIRECT: 0 0%
BRANCH_CONDITIONAL: 2217336 8.86934%
BRANCH_DIRECT_CALL: 554334 2.21734%
BRANCH_INDIRECT_CALL: 0 0%
BRANCH_RETURN: 554334 2.21734%
BRANCH_OTHER: 0 0%

DRAM PAGES: 1048576
Allocated PAGES: 23116
